<?xml version="1.0" encoding="UTF-8"?>

<!-- generated on 2022-08-25 20:54:44 by Eclipse SUMO netedit Version 1.11.0
<configuration xmlns:xsi="http://www.w3.org/2001/XMLSchema-instance" xsi:noNamespaceSchemaLocation="http://sumo.dlr.de/xsd/netconvertConfiguration.xsd">

    <output>
        <output-file value="/Users/davidneiman/Documents/GitHub.nosync/traffic-routing/lengthTest/test.net.xml"/>
    </output>

    <processing>
        <offset.disable-normalization value="true"/>
    </processing>

    <junctions>
        <no-turnarounds value="true"/>
    </junctions>

    <report>
        <aggregate-warnings value="5"/>
    </report>

</configuration>
-->

<net version="1.9" junctionCornerDetail="5" limitTurnSpeed="5.50" xmlns:xsi="http://www.w3.org/2001/XMLSchema-instance" xsi:noNamespaceSchemaLocation="http://sumo.dlr.de/xsd/net_file.xsd">

    <location netOffset="0.00,0.00" convBoundary="0.00,-100.00,200.00,100.00" origBoundary="10000000000.00,10000000000.00,-10000000000.00,-10000000000.00" projParameter="!"/>

    <edge id=":J6_0" function="internal">
        <lane id=":J6_0_0" index="0" speed="6.51" length="9.03" shape="98.40,7.20 98.05,4.75 97.00,3.00 95.25,1.95 92.80,1.60"/>
    </edge>
    <edge id=":J6_1" function="internal">
        <lane id=":J6_1_0" index="0" speed="13.89" length="14.40" shape="98.40,7.20 98.40,-7.20"/>
    </edge>
    <edge id=":J6_2" function="internal">
        <lane id=":J6_2_0" index="0" speed="8.00" length="5.93" shape="98.40,7.20 98.95,3.35 100.00,1.60"/>
    </edge>
    <edge id=":J6_12" function="internal">
        <lane id=":J6_12_0" index="0" speed="8.00" length="8.26" shape="100.00,1.60 100.60,0.60 103.35,-1.05 107.20,-1.60"/>
    </edge>
    <edge id=":J6_3" function="internal">
        <lane id=":J6_3_0" index="0" speed="6.51" length="9.03" shape="107.20,1.60 104.75,1.95 103.00,3.00 101.95,4.75 101.60,7.20"/>
    </edge>
    <edge id=":J6_4" function="internal">
        <lane id=":J6_4_0" index="0" speed="13.89" length="14.40" shape="107.20,1.60 92.80,1.60"/>
    </edge>
    <edge id=":J6_5" function="internal">
        <lane id=":J6_5_0" index="0" speed="8.00" length="14.19" shape="107.20,1.60 103.35,1.05 100.60,-0.60 98.95,-3.35 98.40,-7.20"/>
    </edge>
    <edge id=":J6_6" function="internal">
        <lane id=":J6_6_0" index="0" speed="6.51" length="9.03" shape="101.60,-7.20 101.95,-4.75 103.00,-3.00 104.75,-1.95 107.20,-1.60"/>
    </edge>
    <edge id=":J6_7" function="internal">
        <lane id=":J6_7_0" index="0" speed="13.89" length="14.40" shape="101.60,-7.20 101.60,7.20"/>
    </edge>
    <edge id=":J6_8" function="internal">
        <lane id=":J6_8_0" index="0" speed="8.00" length="5.93" shape="101.60,-7.20 101.05,-3.35 100.00,-1.60"/>
    </edge>
    <edge id=":J6_13" function="internal">
        <lane id=":J6_13_0" index="0" speed="8.00" length="8.26" shape="100.00,-1.60 99.40,-0.60 96.65,1.05 92.80,1.60"/>
    </edge>
    <edge id=":J6_9" function="internal">
        <lane id=":J6_9_0" index="0" speed="6.51" length="9.03" shape="92.80,-1.60 95.25,-1.95 97.00,-3.00 98.05,-4.75 98.40,-7.20"/>
    </edge>
    <edge id=":J6_10" function="internal">
        <lane id=":J6_10_0" index="0" speed="13.89" length="14.40" shape="92.80,-1.60 107.20,-1.60"/>
    </edge>
    <edge id=":J6_11" function="internal">
        <lane id=":J6_11_0" index="0" speed="8.00" length="14.19" shape="92.80,-1.60 96.65,-1.05 99.40,0.60 101.05,3.35 101.60,7.20"/>
    </edge>

    <edge id="-E10" from="J5" to="J6" priority="-1">
        <lane id="-E10_0" index="0" speed="13.89" length="92.80" shape="101.60,-100.00 101.60,-7.20"/>
    </edge>
    <edge id="-E7" from="J6" to="J0" priority="-1">
        <lane id="-E7_0" index="0" speed="13.89" length="92.80" shape="92.80,1.60 0.00,1.60"/>
    </edge>
    <edge id="-E8" from="J2" to="J6" priority="-1">
        <lane id="-E8_0" index="0" speed="13.89" length="92.80" shape="98.40,100.00 98.40,7.20"/>
    </edge>
    <edge id="-E9" from="J3" to="J6" priority="-1">
        <lane id="-E9_0" index="0" speed="13.89" length="92.80" shape="200.00,1.60 107.20,1.60"/>
    </edge>
    <edge id="E10" from="J6" to="J5" priority="-1">
        <lane id="E10_0" index="0" speed="13.89" length="92.80" shape="98.40,-7.20 98.40,-100.00"/>
    </edge>
    <edge id="E9" from="J6" to="J3" priority="-1">
        <lane id="E9_0" index="0" speed="13.89" length="92.80" shape="107.20,-1.60 200.00,-1.60"/>
    </edge>
    <edge id="in" from="J0" to="J6" priority="-1">
        <lane id="in_0" index="0" speed="13.89" length="92.80" shape="0.00,-1.60 92.80,-1.60"/>
    </edge>
    <edge id="out" from="J6" to="J2" priority="-1">
        <lane id="out_0" index="0" speed="13.89" length="92.80" shape="101.60,7.20 101.60,100.00"/>
    </edge>

    <junction id="J0" type="dead_end" x="0.00" y="0.00" incLanes="-E7_0" intLanes="" shape="0.00,0.00 0.00,3.20 0.00,0.00"/>
    <junction id="J2" type="dead_end" x="100.00" y="100.00" incLanes="out_0" intLanes="" shape="100.00,100.00 103.20,100.00 100.00,100.00"/>
    <junction id="J3" type="dead_end" x="200.00" y="0.00" incLanes="E9_0" intLanes="" shape="200.00,0.00 200.00,-3.20 200.00,0.00"/>
    <junction id="J5" type="dead_end" x="100.00" y="-100.00" incLanes="E10_0" intLanes="" shape="100.00,-100.00 96.80,-100.00 100.00,-100.00"/>
    <junction id="J6" type="priority" x="100.00" y="0.00" incLanes="-E8_0 -E9_0 -E10_0 in_0" intLanes=":J6_0_0 :J6_1_0 :J6_12_0 :J6_3_0 :J6_4_0 :J6_5_0 :J6_6_0 :J6_7_0 :J6_13_0 :J6_9_0 :J6_10_0 :J6_11_0" shape="96.80,7.20 103.20,7.20 103.64,4.98 104.20,4.20 104.98,3.64 105.98,3.31 107.20,3.20 107.20,-3.20 104.98,-3.64 104.20,-4.20 103.64,-4.98 103.31,-5.98 103.20,-7.20 96.80,-7.20 96.36,-4.98 95.80,-4.20 95.02,-3.64 94.02,-3.31 92.80,-3.20 92.80,3.20 95.02,3.64 95.80,4.20 96.36,4.98 96.69,5.98">
        <request index="0"  response="000000000000" foes="000100010000" cont="0"/>
        <request index="1"  response="000000000000" foes="111100110000" cont="0"/>
        <request index="2"  response="000011000000" foes="110011110000" cont="1"/>
        <request index="3"  response="000010000000" foes="100010000000" cont="0"/>
        <request index="4"  response="000110000111" foes="100110000111" cont="0"/>
        <request index="5"  response="011110000110" foes="011110000110" cont="0"/>
        <request index="6"  response="000000000000" foes="010000000100" cont="0"/>
        <request index="7"  response="000000000000" foes="110000111100" cont="0"/>
        <request index="8"  response="000000000011" foes="110000110011" cont="1"/>
        <request index="9"  response="000000000010" foes="000000100010" cont="0"/>
        <request index="10" response="000111000110" foes="000111100110" cont="0"/>
        <request index="11" response="000110011110" foes="000110011110" cont="0"/>
    </junction>

    <junction id=":J6_12_0" type="internal" x="100.00" y="1.60" incLanes=":J6_2_0 -E10_0" intLanes=":J6_4_0 :J6_5_0 :J6_6_0 :J6_7_0 :J6_10_0 :J6_11_0"/>
    <junction id=":J6_13_0" type="internal" x="100.00" y="-1.60" incLanes=":J6_8_0 -E8_0" intLanes=":J6_0_0 :J6_1_0 :J6_4_0 :J6_5_0 :J6_10_0 :J6_11_0"/>

    <connection from="-E10" to="E9" fromLane="0" toLane="0" via=":J6_6_0" dir="r" state="M"/>
    <connection from="-E10" to="out" fromLane="0" toLane="0" via=":J6_7_0" dir="s" state="M"/>
    <connection from="-E10" to="-E7" fromLane="0" toLane="0" via=":J6_8_0" dir="l" state="m"/>
    <connection from="-E8" to="-E7" fromLane="0" toLane="0" via=":J6_0_0" dir="r" state="M"/>
    <connection from="-E8" to="E10" fromLane="0" toLane="0" via=":J6_1_0" dir="s" state="M"/>
    <connection from="-E8" to="E9" fromLane="0" toLane="0" via=":J6_2_0" dir="l" state="m"/>
    <connection from="-E9" to="out" fromLane="0" toLane="0" via=":J6_3_0" dir="r" state="m"/>
    <connection from="-E9" to="-E7" fromLane="0" toLane="0" via=":J6_4_0" dir="s" state="m"/>
    <connection from="-E9" to="E10" fromLane="0" toLane="0" via=":J6_5_0" dir="l" state="m"/>
    <connection from="in" to="E10" fromLane="0" toLane="0" via=":J6_9_0" dir="r" state="m"/>
    <connection from="in" to="E9" fromLane="0" toLane="0" via=":J6_10_0" dir="s" state="m"/>
    <connection from="in" to="out" fromLane="0" toLane="0" via=":J6_11_0" dir="l" state="m"/>

    <connection from=":J6_0" to="-E7" fromLane="0" toLane="0" dir="r" state="M"/>
    <connection from=":J6_1" to="E10" fromLane="0" toLane="0" dir="s" state="M"/>
    <connection from=":J6_2" to="E9" fromLane="0" toLane="0" via=":J6_12_0" dir="l" state="m"/>
    <connection from=":J6_12" to="E9" fromLane="0" toLane="0" dir="l" state="M"/>
    <connection from=":J6_3" to="out" fromLane="0" toLane="0" dir="r" state="M"/>
    <connection from=":J6_4" to="-E7" fromLane="0" toLane="0" dir="s" state="M"/>
    <connection from=":J6_5" to="E10" fromLane="0" toLane="0" dir="l" state="M"/>
    <connection from=":J6_6" to="E9" fromLane="0" toLane="0" dir="r" state="M"/>
    <connection from=":J6_7" to="out" fromLane="0" toLane="0" dir="s" state="M"/>
    <connection from=":J6_8" to="-E7" fromLane="0" toLane="0" via=":J6_13_0" dir="l" state="m"/>
    <connection from=":J6_13" to="-E7" fromLane="0" toLane="0" dir="l" state="M"/>
    <connection from=":J6_9" to="E10" fromLane="0" toLane="0" dir="r" state="M"/>
    <connection from=":J6_10" to="E9" fromLane="0" toLane="0" dir="s" state="M"/>
    <connection from=":J6_11" to="out" fromLane="0" toLane="0" dir="l" state="M"/>

</net>
