<?xml version="1.0" encoding="UTF-8"?>

<!-- generated on 2021-09-02 16:59:35 by Eclipse SUMO netedit Version 1.9.2
<configuration xmlns:xsi="http://www.w3.org/2001/XMLSchema-instance" xsi:noNamespaceSchemaLocation="http://sumo.dlr.de/xsd/netconvertConfiguration.xsd">

    <output>
        <output-file value="/usr/local/Cellar/sumo/helloWorld.net.xml"/>
    </output>

    <processing>
        <offset.disable-normalization value="true"/>
    </processing>

    <junctions>
        <no-turnarounds value="true"/>
    </junctions>

    <report>
        <aggregate-warnings value="5"/>
    </report>

</configuration>
-->

<net version="1.9" junctionCornerDetail="5" limitTurnSpeed="5.50" xmlns:xsi="http://www.w3.org/2001/XMLSchema-instance" xsi:noNamespaceSchemaLocation="http://sumo.dlr.de/xsd/net_file.xsd">

    <location netOffset="0.00,0.00" convBoundary="-28.93,24.37,38.58,55.33" origBoundary="10000000000.00,10000000000.00,-10000000000.00,-10000000000.00" projParameter="!"/>

    <edge id=":gneJ1_0" function="internal">
        <lane id=":gneJ1_0_0" index="0" speed="3.90" length="2.59" shape="34.89,53.66 35.59,53.57 36.10,53.28 36.41,52.79 36.52,52.08"/>
    </edge>

    <edge id="gneE0" from="gneJ0" to="gneJ1" priority="-1">
        <lane id="gneE0_0" index="0" speed="13.89" length="63.80" shape="-28.90,52.21 34.89,53.66"/>
    </edge>
    <edge id="gneE1" from="gneJ1" to="gneJ2" priority="-1">
        <lane id="gneE1_0" index="0" speed="13.89" length="27.75" shape="36.52,52.08 36.98,24.34"/>
    </edge>

    <junction id="gneJ0" type="dead_end" x="-28.93" y="53.81" incLanes="" intLanes="" shape="-28.93,53.81 -28.86,50.61"/>
    <junction id="gneJ1" type="priority" x="38.07" y="55.33" incLanes="gneE0_0" intLanes=":gneJ1_0_0" shape="38.12,52.11 34.92,52.06 34.85,55.26 36.65,54.94 37.28,54.51 37.74,53.89 38.02,53.09">
        <request index="0" response="0" foes="0" cont="0"/>
    </junction>
    <junction id="gneJ2" type="dead_end" x="38.58" y="24.37" incLanes="gneE1_0" intLanes="" shape="35.38,24.31 38.58,24.37"/>

    <connection from="gneE0" to="gneE1" fromLane="0" toLane="0" via=":gneJ1_0_0" dir="r" state="M"/>

    <connection from=":gneJ1_0" to="gneE1" fromLane="0" toLane="0" dir="r" state="M"/>

</net>
