<?xml version="1.0" encoding="UTF-8"?>

<!-- generated on 2023-12-30 19:28:08 by Eclipse SUMO netedit Version 1.18.0
<configuration xmlns:xsi="http://www.w3.org/2001/XMLSchema-instance" xsi:noNamespaceSchemaLocation="http://sumo.dlr.de/xsd/neteditConfiguration.xsd">

    <input>
        <sumo-net-file value="blocks5.net.xml"/>
    </input>

    <output>
        <output-file value="blocks5.net.xml"/>
    </output>

    <processing>
        <geometry.min-radius.fix.railways value="false"/>
        <geometry.max-grade.fix value="false"/>
        <offset.disable-normalization value="true"/>
        <lefthand value="0"/>
    </processing>

    <junctions>
        <no-turnarounds value="true"/>
        <junctions.corner-detail value="5"/>
        <junctions.limit-turn-speed value="5.50"/>
        <rectangular-lane-cut value="0"/>
    </junctions>

    <pedestrian>
        <walkingareas value="0"/>
    </pedestrian>

</configuration>
-->

<net version="1.16" junctionCornerDetail="5" limitTurnSpeed="5.50" xmlns:xsi="http://www.w3.org/2001/XMLSchema-instance" xsi:noNamespaceSchemaLocation="http://sumo.dlr.de/xsd/net_file.xsd">

    <location netOffset="0.00,0.00" convBoundary="-1100.00,-1100.00,1400.00,1300.00" origBoundary="-10000000000.00,-10000000000.00,10000000000.00,10000000000.00" projParameter="!"/>

    <edge id=":J10_0" function="internal">
        <lane id=":J10_0_0" index="0" speed="7.25" length="10.89" shape="317.23,-1.20 314.77,-0.90 312.85,0.41 311.49,2.72 310.69,6.03"/>
    </edge>
    <edge id=":J10_1" function="internal">
        <lane id=":J10_1_0" index="0" speed="13.89" length="21.29" shape="317.23,-1.20 311.10,-1.57 306.60,-1.59 302.11,-1.27 296.00,-0.63"/>
    </edge>
    <edge id=":J10_2" function="internal">
        <lane id=":J10_2_0" index="0" speed="9.81" length="10.23" shape="317.46,-4.39 312.44,-5.47 308.72,-7.90 308.37,-8.45"/>
    </edge>
    <edge id=":J10_12" function="internal">
        <lane id=":J10_12_0" index="0" speed="9.81" length="9.06" shape="308.37,-8.45 306.30,-11.67 305.18,-16.78"/>
    </edge>
    <edge id=":J10_3" function="internal">
        <lane id=":J10_3_0" index="0" speed="7.24" length="10.08" shape="311.56,-17.30 312.15,-14.60 313.40,-12.62 315.33,-11.34 317.93,-10.77"/>
    </edge>
    <edge id=":J10_4" function="internal">
        <lane id=":J10_4_0" index="0" speed="13.89" length="23.42" shape="311.56,-17.30 311.96,-10.84 311.95,-5.61 311.52,-0.39 310.69,6.03"/>
    </edge>
    <edge id=":J10_5" function="internal">
        <lane id=":J10_5_0" index="0" speed="9.67" length="10.38" shape="308.37,-17.04 307.94,-11.81 305.67,-7.86 305.20,-7.55"/>
    </edge>
    <edge id=":J10_13" function="internal">
        <lane id=":J10_13_0" index="0" speed="9.67" length="10.40" shape="305.20,-7.55 301.58,-5.19 295.65,-3.81"/>
    </edge>
    <edge id=":J10_6" function="internal">
        <lane id=":J10_6_0" index="0" speed="7.08" length="10.67" shape="294.96,-10.17 298.21,-10.87 300.46,-12.16 301.72,-14.05 301.99,-16.52"/>
    </edge>
    <edge id=":J10_7" function="internal">
        <lane id=":J10_7_0" index="0" speed="13.89" length="23.02" shape="294.96,-10.17 301.34,-10.82 306.43,-11.15 311.53,-11.14 317.93,-10.77"/>
    </edge>
    <edge id=":J10_8" function="internal">
        <lane id=":J10_8_0" index="0" speed="8.94" length="10.94" shape="295.31,-6.99 301.38,-6.78 305.44,-4.61 305.56,-4.38"/>
    </edge>
    <edge id=":J10_14" function="internal">
        <lane id=":J10_14_0" index="0" speed="8.94" length="10.43" shape="305.56,-4.38 307.49,-0.49 307.52,5.59"/>
    </edge>
    <edge id=":J10_9" function="internal">
        <lane id=":J10_9_0" index="0" speed="6.04" length="9.07" shape="301.18,4.72 301.17,2.13 300.30,0.38 298.58,-0.54 296.00,-0.63"/>
    </edge>
    <edge id=":J10_10" function="internal">
        <lane id=":J10_10_0" index="0" speed="13.89" length="21.32" shape="301.18,4.72 302.00,-1.38 302.41,-5.88 302.40,-10.39 301.99,-16.52"/>
    </edge>
    <edge id=":J10_11" function="internal">
        <lane id=":J10_11_0" index="0" speed="9.80" length="11.66" shape="304.35,5.16 305.89,-0.73 308.63,-4.81 309.19,-5.14"/>
    </edge>
    <edge id=":J10_15" function="internal">
        <lane id=":J10_15_0" index="0" speed="9.80" length="9.05" shape="309.19,-5.14 312.56,-7.10 317.69,-7.58"/>
    </edge>
    <edge id=":J11_0" function="internal">
        <lane id=":J11_0_0" index="0" speed="8.37" length="12.30" shape="289.65,118.48 288.53,115.10 286.83,112.62 284.54,111.05 281.67,110.38"/>
    </edge>
    <edge id=":J11_1" function="internal">
        <lane id=":J11_1_0" index="0" speed="13.89" length="24.73" shape="289.65,118.48 288.44,111.91 287.93,106.25 288.06,100.57 288.81,93.93"/>
    </edge>
    <edge id=":J11_2" function="internal">
        <lane id=":J11_2_0" index="0" speed="9.10" length="11.01" shape="292.78,117.81 292.41,112.06 294.09,107.84 294.66,107.43"/>
    </edge>
    <edge id=":J11_12" function="internal">
        <lane id=":J11_12_0" index="0" speed="9.10" length="9.81" shape="294.66,107.43 297.83,105.15 303.62,103.99"/>
    </edge>
    <edge id=":J11_3" function="internal">
        <lane id=":J11_3_0" index="0" speed="6.28" length="9.31" shape="303.99,110.38 301.36,110.89 299.66,112.08 298.88,113.94 299.03,116.47"/>
    </edge>
    <edge id=":J11_4" function="internal">
        <lane id=":J11_4_0" index="0" speed="13.89" length="22.35" shape="303.99,110.38 297.70,110.72 292.83,110.85 287.96,110.75 281.67,110.38"/>
    </edge>
    <edge id=":J11_5" function="internal">
        <lane id=":J11_5_0" index="0" speed="8.99" length="10.79" shape="303.81,107.18 297.92,106.68 293.99,104.38 293.85,104.08"/>
    </edge>
    <edge id=":J11_13" function="internal">
        <lane id=":J11_13_0" index="0" speed="8.99" length="10.13" shape="293.85,104.08 292.01,100.27 291.98,94.37"/>
    </edge>
    <edge id=":J11_6" function="internal">
        <lane id=":J11_6_0" index="0" speed="6.12" length="9.06" shape="298.31,95.25 298.33,97.80 299.19,99.58 300.89,100.58 303.44,100.79"/>
    </edge>
    <edge id=":J11_7" function="internal">
        <lane id=":J11_7_0" index="0" speed="13.89" length="21.42" shape="298.31,95.25 297.55,101.37 297.37,105.91 297.85,110.42 299.03,116.47"/>
    </edge>
    <edge id=":J11_8" function="internal">
        <lane id=":J11_8_0" index="0" speed="9.73" length="11.02" shape="295.15,94.81 293.63,100.52 290.92,104.48 290.65,104.63"/>
    </edge>
    <edge id=":J11_14" function="internal">
        <lane id=":J11_14_0" index="0" speed="9.73" length="9.34" shape="290.65,104.63 287.00,106.71 281.89,107.19"/>
    </edge>
    <edge id=":J11_9" function="internal">
        <lane id=":J11_9_0" index="0" speed="7.16" length="10.56" shape="282.32,100.80 284.78,100.51 286.68,99.27 288.02,97.08 288.81,93.93"/>
    </edge>
    <edge id=":J11_10" function="internal">
        <lane id=":J11_10_0" index="0" speed="13.89" length="21.14" shape="282.32,100.80 288.43,101.17 292.88,101.27 297.33,101.14 303.44,100.79"/>
    </edge>
    <edge id=":J11_11" function="internal">
        <lane id=":J11_11_0" index="0" speed="10.70" length="10.50" shape="282.10,104.00 287.15,105.10 291.13,107.66 291.48,108.15"/>
    </edge>
    <edge id=":J11_15" function="internal">
        <lane id=":J11_15_0" index="0" speed="10.70" length="10.13" shape="291.48,108.15 294.05,111.68 295.91,117.14"/>
    </edge>
    <edge id=":J12_0" function="internal">
        <lane id=":J12_0_0" index="0" speed="6.45" length="9.03" shape="210.22,105.51 207.74,105.69 205.94,106.63 204.81,108.32 204.35,110.76"/>
    </edge>
    <edge id=":J12_1" function="internal">
        <lane id=":J12_1_0" index="0" speed="13.89" length="20.85" shape="210.22,105.51 189.40,104.40"/>
    </edge>
    <edge id=":J12_2" function="internal">
        <lane id=":J12_2_0" index="0" speed="9.39" length="10.46" shape="210.44,102.32 205.17,101.21 201.49,98.72 201.19,98.16"/>
    </edge>
    <edge id=":J12_12" function="internal">
        <lane id=":J12_12_0" index="0" speed="9.39" length="9.08" shape="201.19,98.16 199.37,94.84 198.84,89.57"/>
    </edge>
    <edge id=":J12_3" function="internal">
        <lane id=":J12_3_0" index="0" speed="6.69" length="9.41" shape="205.23,89.84 205.50,92.35 206.52,94.21 208.31,95.40 210.87,95.93"/>
    </edge>
    <edge id=":J12_4" function="internal">
        <lane id=":J12_4_0" index="0" speed="13.89" length="20.94" shape="205.23,89.84 204.35,110.76"/>
    </edge>
    <edge id=":J12_5" function="internal">
        <lane id=":J12_5_0" index="0" speed="9.27" length="10.41" shape="202.04,89.70 201.06,94.90 198.66,98.56 198.00,98.91"/>
    </edge>
    <edge id=":J12_13" function="internal">
        <lane id=":J12_13_0" index="0" speed="9.27" length="8.96" shape="198.00,98.91 194.81,100.65 189.52,101.20"/>
    </edge>
    <edge id=":J12_6" function="internal">
        <lane id=":J12_6_0" index="0" speed="6.53" length="9.07" shape="189.77,94.81 192.25,94.55 194.05,93.57 195.19,91.86 195.64,89.43"/>
    </edge>
    <edge id=":J12_7" function="internal">
        <lane id=":J12_7_0" index="0" speed="13.89" length="21.13" shape="189.77,94.81 210.87,95.93"/>
    </edge>
    <edge id=":J12_8" function="internal">
        <lane id=":J12_8_0" index="0" speed="9.28" length="10.55" shape="189.64,98.00 194.87,98.96 198.53,101.39 198.93,102.13"/>
    </edge>
    <edge id=":J12_14" function="internal">
        <lane id=":J12_14_0" index="0" speed="9.28" length="8.94" shape="198.93,102.13 200.63,105.28 201.15,110.63"/>
    </edge>
    <edge id=":J12_9" function="internal">
        <lane id=":J12_9_0" index="0" speed="6.54" length="9.15" shape="194.76,110.36 194.52,107.83 193.54,106.00 191.84,104.85 189.40,104.40"/>
    </edge>
    <edge id=":J12_10" function="internal">
        <lane id=":J12_10_0" index="0" speed="13.89" length="20.94" shape="194.76,110.36 195.64,89.43"/>
    </edge>
    <edge id=":J12_11" function="internal">
        <lane id=":J12_11_0" index="0" speed="9.22" length="10.44" shape="197.96,110.49 198.94,105.21 201.39,101.55 201.98,101.24"/>
    </edge>
    <edge id=":J12_15" function="internal">
        <lane id=":J12_15_0" index="0" speed="9.22" length="9.11" shape="201.98,101.24 205.29,99.52 210.65,99.12"/>
    </edge>
    <edge id=":J14_0" function="internal">
        <lane id=":J14_0_0" index="0" speed="6.90" length="10.09" shape="85.67,107.77 84.96,104.83 83.66,102.81 81.78,101.70 79.31,101.51"/>
    </edge>
    <edge id=":J14_1" function="internal">
        <lane id=":J14_1_0" index="0" speed="13.89" length="22.94" shape="85.67,107.77 84.95,101.41 84.61,96.35 84.61,91.28 84.95,84.89"/>
    </edge>
    <edge id=":J14_2" function="internal">
        <lane id=":J14_2_0" index="0" speed="9.03" length="10.81" shape="88.84,107.38 88.97,101.60 90.97,97.54 91.41,97.28"/>
    </edge>
    <edge id=":J14_12" function="internal">
        <lane id=":J14_12_0" index="0" speed="9.03" length="9.80" shape="91.41,97.28 94.85,95.21 100.60,94.60"/>
    </edge>
    <edge id=":J14_3" function="internal">
        <lane id=":J14_3_0" index="0" speed="6.19" length="9.05" shape="100.36,101.00 97.83,101.26 96.13,102.29 95.25,104.07 95.20,106.61"/>
    </edge>
    <edge id=":J14_4" function="internal">
        <lane id=":J14_4_0" index="0" speed="13.89" length="21.08" shape="100.36,101.00 94.25,100.78 89.82,100.75 85.39,100.97 79.31,101.51"/>
    </edge>
    <edge id=":J14_5" function="internal">
        <lane id=":J14_5_0" index="0" speed="9.38" length="10.94" shape="100.48,97.80 94.78,96.82 90.82,94.37 90.57,93.93"/>
    </edge>
    <edge id=":J14_13" function="internal">
        <lane id=":J14_13_0" index="0" speed="9.38" length="9.37" shape="90.57,93.93 88.61,90.47 88.14,85.10"/>
    </edge>
    <edge id=":J14_6" function="internal">
        <lane id=":J14_6_0" index="0" speed="6.69" length="9.79" shape="94.52,85.52 94.77,88.00 95.89,89.81 97.87,90.94 100.73,91.40"/>
    </edge>
    <edge id=":J14_7" function="internal">
        <lane id=":J14_7_0" index="0" speed="13.89" length="21.15" shape="94.52,85.52 94.18,91.63 94.16,96.08 94.49,100.53 95.20,106.61"/>
    </edge>
    <edge id=":J14_8" function="internal">
        <lane id=":J14_8_0" index="0" speed="9.96" length="10.68" shape="91.33,85.31 90.27,90.59 87.86,94.52 87.30,94.90"/>
    </edge>
    <edge id=":J14_14" function="internal">
        <lane id=":J14_14_0" index="0" speed="9.96" length="9.12" shape="87.30,94.90 84.10,97.10 79.00,98.32"/>
    </edge>
    <edge id=":J14_9" function="internal">
        <lane id=":J14_9_0" index="0" speed="7.44" length="10.63" shape="78.40,91.95 81.10,91.29 83.10,89.89 84.38,87.76 84.95,84.89"/>
    </edge>
    <edge id=":J14_10" function="internal">
        <lane id=":J14_10_0" index="0" speed="13.89" length="22.36" shape="78.40,91.95 84.68,91.41 89.55,91.18 94.42,91.19 100.73,91.40"/>
    </edge>
    <edge id=":J14_11" function="internal">
        <lane id=":J14_11_0" index="0" speed="9.54" length="10.35" shape="78.70,95.14 83.94,95.46 87.90,97.54 88.26,98.05"/>
    </edge>
    <edge id=":J14_15" function="internal">
        <lane id=":J14_15_0" index="0" speed="9.54" length="9.86" shape="88.26,98.05 90.59,101.39 92.02,106.99"/>
    </edge>
    <edge id=":J15_0" function="internal">
        <lane id=":J15_0_0" index="0" speed="8.47" length="12.92" shape="17.15,107.42 13.82,108.19 11.26,109.81 9.49,112.27 8.51,115.57"/>
    </edge>
    <edge id=":J15_1" function="internal">
        <lane id=":J15_1_0" index="0" speed="13.89" length="23.05" shape="17.15,107.42 10.76,107.97 5.66,108.25 0.55,108.28 -5.86,108.10"/>
    </edge>
    <edge id=":J15_2" function="internal">
        <lane id=":J15_2_0" index="0" speed="9.09" length="10.72" shape="16.85,104.23 11.21,103.96 7.22,101.91 6.91,101.41"/>
    </edge>
    <edge id=":J15_12" function="internal">
        <lane id=":J15_12_0" index="0" speed="9.09" length="9.55" shape="6.91,101.41 4.88,98.08 4.20,92.47"/>
    </edge>
    <edge id=":J15_3" function="internal">
        <lane id=":J15_3_0" index="0" speed="6.27" length="9.04" shape="10.60,92.61 10.90,95.11 11.95,96.82 13.73,97.74 16.24,97.86"/>
    </edge>
    <edge id=":J15_4" function="internal">
        <lane id=":J15_4_0" index="0" speed="13.89" length="23.08" shape="10.60,92.61 10.40,99.03 10.06,104.14 9.47,109.22 8.51,115.57"/>
    </edge>
    <edge id=":J15_5" function="internal">
        <lane id=":J15_5_0" index="0" speed="9.50" length="11.00" shape="7.40,92.54 6.47,98.12 3.97,102.04 3.37,102.37"/>
    </edge>
    <edge id=":J15_13" function="internal">
        <lane id=":J15_13_0" index="0" speed="9.50" length="9.65" shape="3.37,102.37 -0.10,104.30 -5.75,104.90"/>
    </edge>
    <edge id=":J15_6" function="internal">
        <lane id=":J15_6_0" index="0" speed="6.85" length="10.23" shape="-5.52,98.51 -2.72,98.21 -0.70,97.09 0.54,95.15 1.00,92.40"/>
    </edge>
    <edge id=":J15_7" function="internal">
        <lane id=":J15_7_0" index="0" speed="13.89" length="21.80" shape="-5.52,98.51 0.69,98.69 5.37,98.67 10.05,98.41 16.24,97.86"/>
    </edge>
    <edge id=":J15_8" function="internal">
        <lane id=":J15_8_0" index="0" speed="9.08" length="10.38" shape="-5.64,101.71 -0.05,102.71 3.64,105.27 3.72,105.47"/>
    </edge>
    <edge id=":J15_14" function="internal">
        <lane id=":J15_14_0" index="0" speed="9.08" length="9.94" shape="3.72,105.47 5.44,109.39 5.35,115.06"/>
    </edge>
    <edge id=":J15_9" function="internal">
        <lane id=":J15_9_0" index="0" speed="6.25" length="9.05" shape="-0.97,114.05 -0.93,111.52 -1.73,109.69 -3.38,108.55 -5.86,108.10"/>
    </edge>
    <edge id=":J15_10" function="internal">
        <lane id=":J15_10_0" index="0" speed="13.89" length="21.77" shape="-0.97,114.05 -0.03,107.90 0.53,103.27 0.82,98.61 1.00,92.40"/>
    </edge>
    <edge id=":J15_11" function="internal">
        <lane id=":J15_11_0" index="0" speed="10.78" length="11.38" shape="2.19,114.55 3.83,109.09 6.77,105.01 7.31,104.67"/>
    </edge>
    <edge id=":J15_15" function="internal">
        <lane id=":J15_15_0" index="0" speed="10.78" length="10.06" shape="7.31,104.67 11.01,102.33 16.55,101.05"/>
    </edge>
    <edge id=":J16_0" function="internal">
        <lane id=":J16_0_0" index="0" speed="7.08" length="10.26" shape="-13.33,209.97 -13.95,206.94 -15.19,204.80 -17.02,203.54 -19.46,203.15"/>
    </edge>
    <edge id=":J16_1" function="internal">
        <lane id=":J16_1_0" index="0" speed="13.89" length="23.66" shape="-13.33,209.97 -13.83,203.48 -13.91,198.16 -13.51,192.86 -12.60,186.41"/>
    </edge>
    <edge id=":J16_2" function="internal">
        <lane id=":J16_2_0" index="0" speed="9.05" length="10.90" shape="-10.14,209.67 -9.86,203.93 -7.76,199.93 -7.20,199.61"/>
    </edge>
    <edge id=":J16_12" function="internal">
        <lane id=":J16_12_0" index="0" speed="9.05" length="9.61" shape="-7.20,199.61 -3.85,197.67 1.87,197.16"/>
    </edge>
    <edge id=":J16_3" function="internal">
        <lane id=":J16_3_0" index="0" speed="6.21" length="9.05" shape="1.53,203.55 -1.00,203.78 -2.72,204.77 -3.64,206.54 -3.77,209.07"/>
    </edge>
    <edge id=":J16_4" function="internal">
        <lane id=":J16_4_0" index="0" speed="13.89" length="21.00" shape="1.53,203.55 -19.46,203.15"/>
    </edge>
    <edge id=":J16_5" function="internal">
        <lane id=":J16_5_0" index="0" speed="9.15" length="10.30" shape="1.70,200.35 -3.94,199.25 -7.68,196.64"/>
    </edge>
    <edge id=":J16_13" function="internal">
        <lane id=":J16_13_0" index="0" speed="9.15" length="10.12" shape="-7.68,196.64 -9.51,192.53 -9.44,186.92"/>
    </edge>
    <edge id=":J16_6" function="internal">
        <lane id=":J16_6_0" index="0" speed="6.36" length="9.28" shape="-3.12,187.93 -3.14,190.45 -2.29,192.29 -0.56,193.46 2.04,193.96"/>
    </edge>
    <edge id=":J16_7" function="internal">
        <lane id=":J16_7_0" index="0" speed="13.89" length="21.24" shape="-3.12,187.93 -4.02,194.00 -4.39,198.47 -4.29,202.95 -3.77,209.07"/>
    </edge>
    <edge id=":J16_8" function="internal">
        <lane id=":J16_8_0" index="0" speed="10.11" length="11.03" shape="-6.28,187.42 -7.85,192.82 -10.58,196.71 -11.15,197.05"/>
    </edge>
    <edge id=":J16_14" function="internal">
        <lane id=":J16_14_0" index="0" speed="10.11" length="9.03" shape="-11.15,197.05 -14.47,199.08 -19.53,199.95"/>
    </edge>
    <edge id=":J16_9" function="internal">
        <lane id=":J16_9_0" index="0" speed="7.63" length="11.04" shape="-19.66,193.55 -16.99,193.06 -14.93,191.71 -13.46,189.49 -12.60,186.41"/>
    </edge>
    <edge id=":J16_10" function="internal">
        <lane id=":J16_10_0" index="0" speed="13.89" length="21.70" shape="-19.66,193.55 2.04,193.96"/>
    </edge>
    <edge id=":J16_11" function="internal">
        <lane id=":J16_11_0" index="0" speed="9.67" length="10.50" shape="-19.60,196.75 -14.52,197.45 -10.72,199.79 -10.23,200.57"/>
    </edge>
    <edge id=":J16_15" function="internal">
        <lane id=":J16_15_0" index="0" speed="9.67" length="9.53" shape="-10.23,200.57 -8.20,203.76 -6.95,209.37"/>
    </edge>
    <edge id=":J17_0" function="internal">
        <lane id=":J17_0_0" index="0" speed="6.96" length="9.68" shape="112.70,208.06 110.16,208.62 108.33,209.87 107.20,211.79 106.78,214.39"/>
    </edge>
    <edge id=":J17_1" function="internal">
        <lane id=":J17_1_0" index="0" speed="13.89" length="22.37" shape="112.70,208.06 106.41,208.49 101.54,208.65 96.66,208.55 90.36,208.25"/>
    </edge>
    <edge id=":J17_2" function="internal">
        <lane id=":J17_2_0" index="0" speed="9.61" length="10.30" shape="112.45,204.87 107.26,204.45 103.33,202.29 102.98,201.79"/>
    </edge>
    <edge id=":J17_12" function="internal">
        <lane id=":J17_12_0" index="0" speed="9.61" length="9.96" shape="102.98,201.79 100.65,198.38 99.23,192.73"/>
    </edge>
    <edge id=":J17_3" function="internal">
        <lane id=":J17_3_0" index="0" speed="7.00" length="10.27" shape="105.58,191.95 106.30,194.97 107.60,197.07 109.48,198.24 111.95,198.49"/>
    </edge>
    <edge id=":J17_4" function="internal">
        <lane id=":J17_4_0" index="0" speed="13.89" length="22.50" shape="105.58,191.95 106.31,198.24 106.72,203.15 106.86,208.06 106.78,214.39"/>
    </edge>
    <edge id=":J17_5" function="internal">
        <lane id=":J17_5_0" index="0" speed="9.02" length="10.78" shape="102.40,192.34 102.27,198.17 100.25,202.23 99.90,202.44"/>
    </edge>
    <edge id=":J17_13" function="internal">
        <lane id=":J17_13_0" index="0" speed="9.02" length="9.96" shape="99.90,202.44 96.34,204.53 90.53,205.05"/>
    </edge>
    <edge id=":J17_6" function="internal">
        <lane id=":J17_6_0" index="0" speed="6.16" length="9.05" shape="90.87,198.66 93.40,198.43 95.11,197.43 95.99,195.66 96.05,193.11"/>
    </edge>
    <edge id=":J17_7" function="internal">
        <lane id=":J17_7_0" index="0" speed="13.89" length="21.11" shape="90.87,198.66 96.97,198.97 101.41,199.07 105.85,198.92 111.95,198.49"/>
    </edge>
    <edge id=":J17_8" function="internal">
        <lane id=":J17_8_0" index="0" speed="9.57" length="11.25" shape="90.70,201.86 96.44,202.90 100.50,205.32 100.86,205.90"/>
    </edge>
    <edge id=":J17_14" function="internal">
        <lane id=":J17_14_0" index="0" speed="9.57" length="9.04" shape="100.86,205.90 102.88,209.13 103.58,214.32"/>
    </edge>
    <edge id=":J17_9" function="internal">
        <lane id=":J17_9_0" index="0" speed="6.95" length="10.20" shape="97.19,214.17 96.81,211.72 95.54,209.91 93.39,208.76 90.36,208.25"/>
    </edge>
    <edge id=":J17_10" function="internal">
        <lane id=":J17_10_0" index="0" speed="13.89" length="21.12" shape="97.19,214.17 97.28,208.06 97.16,203.61 96.77,199.18 96.05,193.11"/>
    </edge>
    <edge id=":J17_11" function="internal">
        <lane id=":J17_11_0" index="0" speed="9.60" length="10.36" shape="100.38,214.24 101.22,209.09 103.47,205.27 104.06,204.88"/>
    </edge>
    <edge id=":J17_15" function="internal">
        <lane id=":J17_15_0" index="0" speed="9.60" length="8.90" shape="104.06,204.88 107.13,202.80 112.20,201.68"/>
    </edge>
    <edge id=":J19_0" function="internal">
        <lane id=":J19_0_0" index="0" speed="6.42" length="9.04" shape="191.55,207.51 191.10,205.06 189.97,203.37 188.17,202.45 185.68,202.29"/>
    </edge>
    <edge id=":J19_1" function="internal">
        <lane id=":J19_1_0" index="0" speed="13.89" length="21.99" shape="191.55,207.51 191.60,185.52"/>
    </edge>
    <edge id=":J19_2" function="internal">
        <lane id=":J19_2_0" index="0" speed="9.41" length="10.95" shape="194.75,207.38 195.32,201.99 197.52,198.07 198.39,197.51"/>
    </edge>
    <edge id=":J19_12" function="internal">
        <lane id=":J19_12_0" index="0" speed="9.41" length="9.07" shape="198.39,197.51 201.35,195.61 206.81,194.62"/>
    </edge>
    <edge id=":J19_3" function="internal">
        <lane id=":J19_3_0" index="0" speed="6.73" length="9.71" shape="207.08,201.01 204.40,201.49 202.51,202.67 201.43,204.55 201.15,207.13"/>
    </edge>
    <edge id=":J19_4" function="internal">
        <lane id=":J19_4_0" index="0" speed="13.89" length="21.43" shape="207.08,201.01 185.68,202.29"/>
    </edge>
    <edge id=":J19_5" function="internal">
        <lane id=":J19_5_0" index="0" speed="9.13" length="10.32" shape="206.94,197.82 201.43,197.25 197.56,195.04 197.41,194.76"/>
    </edge>
    <edge id=":J19_13" function="internal">
        <lane id=":J19_13_0" index="0" speed="9.13" length="9.68" shape="197.41,194.76 195.35,191.17 194.79,185.65"/>
    </edge>
    <edge id=":J19_6" function="internal">
        <lane id=":J19_6_0" index="0" speed="6.33" length="9.04" shape="201.19,185.92 201.44,188.42 202.44,190.17 204.19,191.17 206.68,191.42"/>
    </edge>
    <edge id=":J19_7" function="internal">
        <lane id=":J19_7_0" index="0" speed="13.89" length="21.21" shape="201.19,185.92 201.15,207.13"/>
    </edge>
    <edge id=":J19_8" function="internal">
        <lane id=":J19_8_0" index="0" speed="9.93" length="10.64" shape="197.99,185.79 197.01,191.26 194.59,195.30 194.28,195.51"/>
    </edge>
    <edge id=":J19_14" function="internal">
        <lane id=":J19_14_0" index="0" speed="9.93" length="9.72" shape="194.28,195.51 190.73,197.92 185.43,199.10"/>
    </edge>
    <edge id=":J19_9" function="internal">
        <lane id=":J19_9_0" index="0" speed="7.41" length="10.92" shape="184.93,192.72 187.74,192.08 189.79,190.67 191.07,188.48 191.60,185.52"/>
    </edge>
    <edge id=":J19_10" function="internal">
        <lane id=":J19_10_0" index="0" speed="13.89" length="21.79" shape="184.93,192.72 206.68,191.42"/>
    </edge>
    <edge id=":J19_11" function="internal">
        <lane id=":J19_11_0" index="0" speed="9.20" length="10.66" shape="185.18,195.91 190.58,196.26 194.51,198.26 194.97,198.95"/>
    </edge>
    <edge id=":J19_15" function="internal">
        <lane id=":J19_15_0" index="0" speed="9.20" length="9.00" shape="194.97,198.95 196.97,201.93 197.95,207.26"/>
    </edge>
    <edge id=":J21_0" function="internal">
        <lane id=":J21_0_0" index="0" speed="6.77" length="9.83" shape="320.18,197.65 317.71,197.84 315.85,198.91 314.61,200.85 313.99,203.68"/>
    </edge>
    <edge id=":J21_1" function="internal">
        <lane id=":J21_1_0" index="0" speed="13.89" length="21.31" shape="320.18,197.65 314.06,197.14 309.56,196.94 305.05,196.98 298.91,197.21"/>
    </edge>
    <edge id=":J21_2" function="internal">
        <lane id=":J21_2_0" index="0" speed="10.94" length="10.83" shape="320.47,194.46 315.27,193.23 311.18,190.56 310.82,190.08"/>
    </edge>
    <edge id=":J21_12" function="internal">
        <lane id=":J21_12_0" index="0" speed="10.94" length="10.31" shape="310.82,190.08 308.19,186.47 306.30,180.94"/>
    </edge>
    <edge id=":J21_3" function="internal">
        <lane id=":J21_3_0" index="0" speed="8.66" length="12.94" shape="312.56,179.60 313.72,183.09 315.52,185.66 317.96,187.33 321.04,188.09"/>
    </edge>
    <edge id=":J21_4" function="internal">
        <lane id=":J21_4_0" index="0" speed="13.89" length="24.25" shape="312.56,179.60 313.80,186.09 314.42,191.58 314.46,197.09 313.99,203.68"/>
    </edge>
    <edge id=":J21_5" function="internal">
        <lane id=":J21_5_0" index="0" speed="9.02" length="11.02" shape="309.43,180.27 309.82,186.08 308.18,190.30 307.64,190.69"/>
    </edge>
    <edge id=":J21_13" function="internal">
        <lane id=":J21_13_0" index="0" speed="9.02" length="9.69" shape="307.64,190.69 304.50,192.95 298.78,194.02"/>
    </edge>
    <edge id=":J21_6" function="internal">
        <lane id=":J21_6_0" index="0" speed="6.17" length="9.05" shape="298.51,187.62 301.01,187.16 302.62,186.00 303.34,184.15 303.17,181.61"/>
    </edge>
    <edge id=":J21_7" function="internal">
        <lane id=":J21_7_0" index="0" speed="13.89" length="22.56" shape="298.51,187.62 304.85,187.40 309.79,187.36 314.73,187.58 321.04,188.09"/>
    </edge>
    <edge id=":J21_8" function="internal">
        <lane id=":J21_8_0" index="0" speed="9.10" length="10.90" shape="298.64,190.82 304.43,191.40 308.39,193.68 308.63,194.13"/>
    </edge>
    <edge id=":J21_14" function="internal">
        <lane id=":J21_14_0" index="0" speed="9.10" length="9.72" shape="308.63,194.13 310.52,197.68 310.81,203.38"/>
    </edge>
    <edge id=":J21_9" function="internal">
        <lane id=":J21_9_0" index="0" speed="6.29" length="9.24" shape="304.44,202.77 304.30,200.25 303.33,198.48 301.53,197.47 298.91,197.21"/>
    </edge>
    <edge id=":J21_10" function="internal">
        <lane id=":J21_10_0" index="0" speed="13.89" length="21.33" shape="304.44,202.77 304.93,196.64 304.94,192.13 304.38,187.64 303.17,181.61"/>
    </edge>
    <edge id=":J21_11" function="internal">
        <lane id=":J21_11_0" index="0" speed="9.45" length="10.57" shape="307.62,203.07 308.90,197.51 311.52,193.69 311.72,193.58"/>
    </edge>
    <edge id=":J21_15" function="internal">
        <lane id=":J21_15_0" index="0" speed="9.45" length="9.53" shape="311.72,193.58 315.47,191.61 320.76,191.27"/>
    </edge>
    <edge id=":J22_0" function="internal">
        <lane id=":J22_0_0" index="0" speed="13.89" length="2.74" shape="401.30,204.80 400.44,204.80 399.86,204.79 399.27,204.75 398.42,204.68"/>
        <lane id=":J22_0_1" index="1" speed="13.89" length="2.74" shape="401.30,201.60 400.53,201.60 400.00,201.59 399.47,201.56 398.71,201.49"/>
    </edge>
    <edge id=":J23_0" function="internal">
        <lane id=":J23_0_0" index="0" speed="13.89" length="2.85" shape="401.37,4.80 398.40,4.70"/>
        <lane id=":J23_0_1" index="1" speed="13.89" length="2.85" shape="401.37,1.60 398.63,1.51"/>
    </edge>
    <edge id=":J24_0" function="internal">
        <lane id=":J24_0_0" index="0" speed="13.89" length="2.95" shape="-101.49,195.20 -98.58,195.17"/>
        <lane id=":J24_0_1" index="1" speed="13.89" length="2.95" shape="-101.49,198.40 -98.51,198.37"/>
    </edge>
    <edge id=":J25_0" function="internal">
        <lane id=":J25_0_0" index="0" speed="13.89" length="2.64" shape="-101.38,-4.80 -98.85,-4.89"/>
        <lane id=":J25_0_1" index="1" speed="13.89" length="2.64" shape="-101.38,-1.60 -98.63,-1.70"/>
    </edge>
    <edge id=":J27_0" function="internal">
        <lane id=":J27_0_0" index="0" speed="13.89" length="2.86" shape="195.20,301.46 195.14,298.67"/>
        <lane id=":J27_0_1" index="1" speed="13.89" length="2.86" shape="198.40,301.46 198.34,298.54"/>
    </edge>
    <edge id=":J28_0" function="internal">
        <lane id=":J28_0_0" index="0" speed="13.89" length="2.86" shape="204.80,-101.46 204.86,-98.66"/>
        <lane id=":J28_0_1" index="1" speed="13.89" length="2.86" shape="201.60,-101.46 201.66,-98.54"/>
    </edge>
    <edge id=":J29_0" function="internal">
        <lane id=":J29_0_0" index="0" speed="13.89" length="3.01" shape="95.20,301.49 95.23,298.44"/>
        <lane id=":J29_0_1" index="1" speed="13.89" length="3.01" shape="98.40,301.49 98.43,298.51"/>
    </edge>
    <edge id=":J30_0" function="internal">