<?xml version="1.0" encoding="UTF-8"?>

<!-- generated on 2025-05-28 15:49:19 by Eclipse SUMO netedit Version 1.20.0
<configuration xmlns:xsi="http://www.w3.org/2001/XMLSchema-instance" xsi:noNamespaceSchemaLocation="http://sumo.dlr.de/xsd/neteditConfiguration.xsd">

    <input>
        <sumo-net-file value="/Users/davidneiman/Documents/GitHub.nosync/traffic-routing/surtrac_test/blocks6.net.xml"/>
    </input>

    <output>
        <output-file value="/Users/davidneiman/Documents/GitHub.nosync/traffic-routing/surtrac_test/blocks6.net.xml"/>
    </output>

    <processing>
        <geometry.min-radius.fix.railways value="false"/>
        <geometry.max-grade.fix value="false"/>
        <offset.disable-normalization value="true"/>
        <lefthand value="0"/>
    </processing>

    <junctions>
        <no-internal-links value="true"/>
        <no-turnarounds value="true"/>
        <junctions.corner-detail value="5"/>
        <junctions.limit-turn-speed value="5.50"/>
        <rectangular-lane-cut value="0"/>
    </junctions>

    <pedestrian>
        <walkingareas value="0"/>
    </pedestrian>

</configuration>
-->

<net version="1.20" junctionCornerDetail="5" limitTurnSpeed="5.50" xmlns:xsi="http://www.w3.org/2001/XMLSchema-instance" xsi:noNamespaceSchemaLocation="http://sumo.dlr.de/xsd/net_file.xsd">

    <location netOffset="0.00,0.00" convBoundary="-1100.00,-1100.00,1400.00,1300.00" origBoundary="-10000000000.00,-10000000000.00,10000000000.00,10000000000.00" projParameter="!"/>

    <edge id="-E0" from="J9" to="J7" priority="-1">
        <lane id="-E0_0" index="0" speed="13.89" length="100.00" shape="189.60,4.80 110.40,4.80"/>
        <lane id="-E0_1" index="1" speed="13.89" length="100.00" shape="189.60,1.60 110.40,1.60"/>
    </edge>
    <edge id="-E1" from="J12" to="J14" priority="-1">
        <lane id="-E1_0" index="0" speed="13.89" length="100.00" shape="189.60,104.80 110.40,104.80"/>
        <lane id="-E1_1" index="1" speed="13.89" length="100.00" shape="189.60,101.60 110.40,101.60"/>
    </edge>
    <edge id="-E10" from="J9" to="J12" priority="-1">
        <lane id="-E10_0" index="0" speed="13.89" length="100.00" shape="204.80,10.40 204.80,89.60"/>
        <lane id="-E10_1" index="1" speed="13.89" length="100.00" shape="201.60,10.40 201.60,89.60"/>
    </edge>
    <edge id="-E13" from="J14" to="J7" priority="-1">
        <lane id="-E13_0" index="0" speed="13.89" length="100.00" shape="95.20,89.60 95.20,10.40"/>
        <lane id="-E13_1" index="1" speed="13.89" length="100.00" shape="98.40,89.60 98.40,10.40"/>
    </edge>
    <edge id="-E15" from="J15" to="J14" priority="-1">
        <lane id="-E15_0" index="0" speed="13.89" length="100.00" shape="10.40,95.20 89.60,95.20"/>
        <lane id="-E15_1" index="1" speed="13.89" length="100.00" shape="10.40,98.40 89.60,98.40"/>
    </edge>
    <edge id="-E16" from="J6" to="J15" priority="-1">
        <lane id="-E16_0" index="0" speed="13.89" length="100.00" shape="4.80,10.40 4.80,89.60"/>
        <lane id="-E16_1" index="1" speed="13.89" length="100.00" shape="1.60,10.40 1.60,89.60"/>
    </edge>
    <edge id="-E17" from="J16" to="J15" priority="-1">
        <lane id="-E17_0" index="0" speed="13.89" length="100.00" shape="-4.80,189.60 -4.80,110.40"/>
        <lane id="-E17_1" index="1" speed="13.89" length="100.00" shape="-1.60,189.60 -1.60,110.40"/>
    </edge>
    <edge id="-E18" from="J17" to="J16" priority="-1">
        <lane id="-E18_0" index="0" speed="13.89" length="100.00" shape="89.60,204.80 10.40,204.80"/>
        <lane id="-E18_1" index="1" speed="13.89" length="100.00" shape="89.60,201.60 10.40,201.60"/>
    </edge>
    <edge id="-E19" from="J14" to="J17" priority="-1">
        <lane id="-E19_0" index="0" speed="13.89" length="100.00" shape="104.80,110.40 104.80,189.60"/>
        <lane id="-E19_1" index="1" speed="13.89" length="100.00" shape="101.60,110.40 101.60,189.60"/>
    </edge>
    <edge id="-E2" from="J19" to="J17" priority="-1">
        <lane id="-E2_0" index="0" speed="13.89" length="100.00" shape="189.60,204.80 110.40,204.80"/>
        <lane id="-E2_1" index="1" speed="13.89" length="100.00" shape="189.60,201.60 110.40,201.60"/>
    </edge>
    <edge id="-E23" from="J12" to="J19" priority="-1">
        <lane id="-E23_0" index="0" speed="13.89" length="100.00" shape="204.80,110.40 204.80,189.60"/>
        <lane id="-E23_1" index="1" speed="13.89" length="100.00" shape="201.60,110.40 201.60,189.60"/>
    </edge>
    <edge id="-E24" from="J21" to="J19" priority="-1">
        <lane id="-E24_0" index="0" speed="13.89" length="100.00" shape="289.60,204.80 210.40,204.80"/>
        <lane id="-E24_1" index="1" speed="13.89" length="100.00" shape="289.60,201.60 210.40,201.60"/>
    </edge>
    <edge id="-E31" from="J11" to="J21" priority="-1">
        <lane id="-E31_0" index="0" speed="13.89" length="100.00" shape="304.80,110.40 304.80,189.60"/>
        <lane id="-E31_1" index="1" speed="13.89" length="100.00" shape="301.60,110.40 301.60,189.60"/>
    </edge>
    <edge id="-E4" from="J7" to="J6" priority="-1">
        <lane id="-E4_0" index="0" speed="13.89" length="100.00" shape="89.60,4.80 10.40,4.80"/>
        <lane id="-E4_1" index="1" speed="13.89" length="100.00" shape="89.60,1.60 10.40,1.60"/>
    </edge>
    <edge id="-E7" from="J10" to="J9" priority="-1">
        <lane id="-E7_0" index="0" speed="13.89" length="100.00" shape="289.60,4.80 210.40,4.80"/>
        <lane id="-E7_1" index="1" speed="13.89" length="100.00" shape="289.60,1.60 210.40,1.60"/>
    </edge>
    <edge id="-E8" from="J11" to="J10" priority="-1">
        <lane id="-E8_0" index="0" speed="13.89" length="100.00" shape="295.20,89.60 295.20,10.40"/>
        <lane id="-E8_1" index="1" speed="13.89" length="100.00" shape="298.40,89.60 298.40,10.40"/>
    </edge>
    <edge id="-E9" from="J12" to="J11" priority="-1">
        <lane id="-E9_0" index="0" speed="13.89" length="100.00" shape="210.40,95.20 289.60,95.20"/>
        <lane id="-E9_1" index="1" speed="13.89" length="100.00" shape="210.40,98.40 289.60,98.40"/>
    </edge>
    <edge id="E0" from="J7" to="J9" priority="-1">
        <lane id="E0_0" index="0" speed="13.89" length="100.00" shape="110.40,-4.80 189.60,-4.80"/>
        <lane id="E0_1" index="1" speed="13.89" length="100.00" shape="110.40,-1.60 189.60,-1.60"/>
    </edge>
    <edge id="E1" from="J14" to="J12" priority="-1">
        <lane id="E1_0" index="0" speed="13.89" length="100.00" shape="110.40,95.20 189.60,95.20"/>
        <lane id="E1_1" index="1" speed="13.89" length="100.00" shape="110.40,98.40 189.60,98.40"/>
    </edge>
    <edge id="E10" from="J12" to="J9" priority="-1">
        <lane id="E10_0" index="0" speed="13.89" length="100.00" shape="195.20,89.60 195.20,10.40"/>
        <lane id="E10_1" index="1" speed="13.89" length="100.00" shape="198.40,89.60 198.40,10.40"/>
    </edge>
    <edge id="E13" from="J7" to="J14" priority="-1">
        <lane id="E13_0" index="0" speed="13.89" length="100.00" shape="104.80,10.40 104.80,89.60"/>
        <lane id="E13_1" index="1" speed="13.89" length="100.00" shape="101.60,10.40 101.60,89.60"/>
    </edge>
    <edge id="E15" from="J14" to="J15" priority="-1">
        <lane id="E15_0" index="0" speed="13.89" length="100.00" shape="89.60,104.80 10.40,104.80"/>
        <lane id="E15_1" index="1" speed="13.89" length="100.00" shape="89.60,101.60 10.40,101.60"/>
    </edge>
    <edge id="E16" from="J15" to="J6" priority="-1">
        <lane id="E16_0" index="0" speed="13.89" length="100.00" shape="-4.80,89.60 -4.80,10.40"/>
        <lane id="E16_1" index="1" speed="13.89" length="100.00" shape="-1.60,89.60 -1.60,10.40"/>
    </edge>
    <edge id="E17" from="J15" to="J16" priority="-1">
        <lane id="E17_0" index="0" speed="13.89" length="100.00" shape="4.80,110.40 4.80,189.60"/>
        <lane id="E17_1" index="1" speed="13.89" length="100.00" shape="1.60,110.40 1.60,189.60"/>
    </edge>
    <edge id="E18" from="J16" to="J17" priority="-1">
        <lane id="E18_0" index="0" speed="13.89" length="100.00" shape="10.40,195.20 89.60,195.20"/>
        <lane id="E18_1" index="1" speed="13.89" length="100.00" shape="10.40,198.40 89.60,198.40"/>
    </edge>
    <edge id="E19" from="J17" to="J14" priority="-1">
        <lane id="E19_0" index="0" speed="13.89" length="100.00" shape="95.20,189.60 95.20,110.40"/>
        <lane id="E19_1" index="1" speed="13.89" length="100.00" shape="98.40,189.60 98.40,110.40"/>
    </edge>
    <edge id="E2" from="J17" to="J19" priority="-1">
        <lane id="E2_0" index="0" speed="13.89" length="100.00" shape="110.40,195.20 189.60,195.20"/>
        <lane id="E2_1" index="1" speed="13.89" length="100.00" shape="110.40,198.40 189.60,198.40"/>
    </edge>
    <edge id="E23" from="J19" to="J12" priority="-1">
        <lane id="E23_0" index="0" speed="13.89" length="100.00" shape="195.20,189.60 195.20,110.40"/>
        <lane id="E23_1" index="1" speed="13.89" length="100.00" shape="198.40,189.60 198.40,110.40"/>
    </edge>
    <edge id="E24" from="J19" to="J21" priority="-1">
        <lane id="E24_0" index="0" speed="13.89" length="100.00" shape="210.40,195.20 289.60,195.20"/>
        <lane id="E24_1" index="1" speed="13.89" length="100.00" shape="210.40,198.40 289.60,198.40"/>
    </edge>
    <edge id="E31" from="J21" to="J11" priority="-1">
        <lane id="E31_0" index="0" speed="13.89" length="100.00" shape="295.20,189.60 295.20,110.40"/>
        <lane id="E31_1" index="1" speed="13.89" length="100.00" shape="298.40,189.60 298.40,110.40"/>
    </edge>
    <edge id="E4" from="J6" to="J7" priority="-1">
        <lane id="E4_0" index="0" speed="13.89" length="100.00" shape="10.40,-4.80 89.60,-4.80"/>
        <lane id="E4_1" index="1" speed="13.89" length="100.00" shape="10.40,-1.60 89.60,-1.60"/>
    </edge>
    <edge id="E7" from="J9" to="J10" priority="-1">
        <lane id="E7_0" index="0" speed="13.89" length="100.00" shape="210.40,-4.80 289.60,-4.80"/>
        <lane id="E7_1" index="1" speed="13.89" length="100.00" shape="210.40,-1.60 289.60,-1.60"/>
    </edge>
    <edge id="E8" from="J10" to="J11" priority="-1">
        <lane id="E8_0" index="0" speed="13.89" length="100.00" shape="304.80,10.40 304.80,89.60"/>
        <lane id="E8_1" index="1" speed="13.89" length="100.00" shape="301.60,10.40 301.60,89.60"/>
    </edge>
    <edge id="E9" from="J11" to="J12" priority="-1">
        <lane id="E9_0" index="0" speed="13.89" length="100.00" shape="289.60,104.80 210.40,104.80"/>
        <lane id="E9_1" index="1" speed="13.89" length="100.00" shape="289.60,101.60 210.40,101.60"/>
    </edge>
    <edge id="in1" from="J8" to="J27" priority="-1">
        <lane id="in1_0" index="0" speed="13.89" length="1000.00" shape="195.20,1300.00 195.20,301.50"/>
        <lane id="in1_1" index="1" speed="13.89" length="1000.00" shape="198.40,1300.00 198.40,301.50"/>
    </edge>
    <edge id="in1-2" from="J27" to="J19" priority="-1">
        <lane id="in1-2_0" index="0" speed="13.89" length="100.00" shape="195.20,298.50 195.20,210.40"/>
        <lane id="in1-2_1" index="1" speed="13.89" length="100.00" shape="198.40,298.50 198.40,210.40"/>
    </edge>
    <edge id="in2" from="J5" to="J22" priority="-1">
        <lane id="in2_0" index="0" speed="13.89" length="1000.00" shape="1400.00,204.80 401.50,204.80"/>
        <lane id="in2_1" index="1" speed="13.89" length="1000.00" shape="1400.00,201.60 401.50,201.60"/>
    </edge>
    <edge id="in2-2" from="J22" to="J21" priority="-1">
        <lane id="in2-2_0" index="0" speed="13.89" length="100.00" shape="398.50,204.80 310.40,204.80"/>
        <lane id="in2-2_1" index="1" speed="13.89" length="100.00" shape="398.50,201.60 310.40,201.60"/>
    </edge>
    <edge id="in3" from="J4" to="J23" priority="-1">
        <lane id="in3_0" index="0" speed="13.89" length="1000.00" shape="1400.00,4.80 401.50,4.80"/>
        <lane id="in3_1" index="1" speed="13.89" length="1000.00" shape="1400.00,1.60 401.50,1.60"/>
    </edge>
    <edge id="in3-2" from="J23" to="J10" priority="-1">
        <lane id="in3-2_0" index="0" speed="13.89" length="100.00" shape="398.50,4.80 310.40,4.80"/>
        <lane id="in3-2_1" index="1" speed="13.89" length="100.00" shape="398.50,1.60 310.40,1.60"/>
    </edge>
    <edge id="in4" from="J3" to="J28" priority="-1">
        <lane id="in4_0" index="0" speed="13.89" length="1000.00" shape="204.80,-1100.00 204.80,-101.50"/>
        <lane id="in4_1" index="1" speed="13.89" length="1000.00" shape="201.60,-1100.00 201.60,-101.50"/>
    </edge>
    <edge id="in4-2" from="J28" to="J9" priority="-1">
        <lane id="in4-2_0" index="0" speed="13.89" length="100.00" shape="204.80,-98.50 204.80,-10.40"/>
        <lane id="in4-2_1" index="1" speed="13.89" length="100.00" shape="201.60,-98.50 201.60,-10.40"/>
    </edge>
    <edge id="in5" from="J2" to="J30" priority="-1">
        <lane id="in5_0" index="0" speed="13.89" length="1000.00" shape="104.80,-1100.00 104.80,-101.50"/>
        <lane id="in5_1" index="1" speed="13.89" length="1000.00" shape="101.60,-1100.00 101.60,-101.50"/>
    </edge>
    <edge id="in5-2" from="J30" to="J7" priority="-1">
        <lane id="in5-2_0" index="0" speed="13.89" length="100.00" shape="104.80,-98.50 104.80,-10.40"/>
        <lane id="in5-2_1" index="1" speed="13.89" length="100.00" shape="101.60,-98.50 101.60,-10.40"/>
    </edge>
    <edge id="in6" from="J1" to="J25" priority="-1">
        <lane id="in6_0" index="0" speed="13.89" length="1000.00" shape="-1100.00,-4.80 -101.50,-4.80"/>
        <lane id="in6_1" index="1" speed="13.89" length="1000.00" shape="-1100.00,-1.60 -101.50,-1.60"/>
    </edge>
    <edge id="in6-2" from="J25" to="J6" priority="-1">
        <lane id="in6-2_0" index="0" speed="13.89" length="100.00" shape="-98.50,-4.80 -10.40,-4.80"/>
        <lane id="in6-2_1" index="1" speed="13.89" length="100.00" shape="-98.50,-1.60 -10.40,-1.60"/>
    </edge>
    <edge id="in7" from="J0" to="J24" priority="-1">
        <lane id="in7_0" index="0" speed="13.89" length="1000.00" shape="-1100.00,195.20 -101.50,195.20"/>
        <lane id="in7_1" index="1" speed="13.89" length="1000.00" shape="-1100.00,198.40 -101.50,198.40"/>
    </edge>
    <edge id="in7-2" from="J24" to="J16" priority="-1">
        <lane id="in7-2_0" index="0" speed="13.89" length="100.00" shape="-98.50,195.20 -10.40,195.20"/>
        <lane id="in7-2_1" index="1" speed="13.89" length="100.00" shape="-98.50,198.40 -10.40,198.40"/>
    </edge>
    <edge id="in8" from="J13" to="J29" priority="-1">
        <lane id="in8_0" index="0" speed="13.89" length="1000.00" shape="95.20,1300.00 95.20,301.50"/>
        <lane id="in8_1" index="1" speed="13.89" length="1000.00" shape="98.40,1300.00 98.40,301.50"/>
    </edge>
    <edge id="in8-2" from="J29" to="J17" priority="-1">
        <lane id="in8-2_0" index="0" speed="13.89" length="100.00" shape="95.20,298.50 95.20,210.40"/>
        <lane id="in8-2_1" index="1" speed="13.89" length="100.00" shape="98.40,298.50 98.40,210.40"/>
    </edge>
    <edge id="out1" from="J19" to="J27" priority="-1">
        <lane id="out1_0" index="0" speed="13.89" length="100.00" shape="204.80,210.40 204.80,298.50"/>
        <lane id="out1_1" index="1" speed="13.89" length="100.00" shape="201.60,210.40 201.60,298.50"/>
    </edge>
    <edge id="out2" from="J21" to="J22" priority="-1">
        <lane id="out2_0" index="0" speed="13.89" length="100.00" shape="310.40,195.20 398.50,195.20"/>
        <lane id="out2_1" index="1" speed="13.89" length="100.00" shape="310.40,198.40 398.50,198.40"/>
    </edge>
    <edge id="out3" from="J10" to="J23" priority="-1">
        <lane id="out3_0" index="0" speed="13.89" length="100.00" shape="310.40,-4.80 398.50,-4.80"/>
        <lane id="out3_1" index="1" speed="13.89" length="100.00" shape="310.40,-1.60 398.50,-1.60"/>
    </edge>
    <edge id="out4" from="J9" to="J28" priority="-1">
        <lane id="out4_0" index="0" speed="13.89" length="100.00" shape="195.20,-10.40 195.20,-98.50"/>
        <lane id="out4_1" index="1" speed="13.89" length="100.00" shape="198.40,-10.40 198.40,-98.50"/>
    </edge>
    <edge id="out5" from="J7" to="J30" priority="-1">
        <lane id="out5_0" index="0" speed="13.89" length="100.00" shape="95.20,-10.40 95.20,-98.50"/>
        <lane id="out5_1" index="1" speed="13.89" length="100.00" shape="98.40,-10.40 98.40,-98.50"/>
    </edge>
    <edge id="out6" from="J6" to="J25" priority="-1">
        <lane id="out6_0" index="0" speed="13.89" length="100.00" shape="-10.40,4.80 -98.50,4.80"/>
        <lane id="out6_1" index="1" speed="13.89" length="100.00" shape="-10.40,1.60 -98.50,1.60"/>
    </edge>
    <edge id="out7" from="J16" to="J24" priority="-1">
        <lane id="out7_0" index="0" speed="13.89" length="100.00" shape="-10.40,204.80 -98.50,204.80"/>
        <lane id="out7_1" index="1" speed="13.89" length="100.00" shape="-10.40,201.60 -98.50,201.60"/>
    </edge>
    <edge id="out8" from="J17" to="J29" priority="-1">
        <lane id="out8_0" index="0" speed="13.89" length="100.00" shape="104.80,210.40 104.80,298.50"/>
        <lane id="out8_1" index="1" speed="13.89" length="100.00" shape="101.60,210.40 101.60,298.50"/>
    </edge>

    <tlLogic id="J10" type="static" programID="0" offset="0">
        <phase duration="115" state="rrGGGg"/>
        <phase duration="5"  state="rryyGG"/>
        <phase duration="30" state="GrrrGG"/>
        <phase duration="5"  state="Grrryy"/>
        <phase duration="115" state="GGGrrr"/>
        <phase duration="5"  state="yyyrrr"/>
    </tlLogic>
    <tlLogic id="J11" type="static" programID="0" offset="0">
        <phase duration="115" state="GGGgrr"/>
        <phase duration="5"  state="yyGGrr"/>
        <phase duration="30" state="rrGGGr"/>
        <phase duration="5"  state="rryyGr"/>
        <phase duration="115" state="GrrrGG"/>
        <phase duration="5"  state="yrrryy"/>
    </tlLogic>
    <tlLogic id="J12" type="static" programID="0" offset="0">
        <phase duration="115" state="GGgrrrGGgrrr"/>
        <phase duration="5"  state="yyGrrryyGrrr"/>
        <phase duration="30" state="rrGrrrrrGrrr"/>
        <phase duration="5"  state="rryrrrrryrrr"/>
        <phase duration="115" state="rrrGGgrrrGGg"/>
        <phase duration="5"  state="rrryyGrrryyG"/>
        <phase duration="30" state="rrrrrGrrrrrG"/>
        <phase duration="5"  state="rrrrryrrrrry"/>
    </tlLogic>
    <tlLogic id="J14" type="static" programID="0" offset="0">
        <phase duration="115" state="GGgrrrGGgrrr"/>
        <phase duration="5"  state="yyGrrryyGrrr"/>
        <phase duration="30" state="rrGrrrrrGrrr"/>
        <phase duration="5"  state="rryrrrrryrrr"/>
        <phase duration="115" state="rrrGGgrrrGGg"/>
        <phase duration="5"  state="rrryyGrrryyG"/>
        <phase duration="30" state="rrrrrGrrrrrG"/>
        <phase duration="5"  state="rrrrryrrrrry"/>
    </tlLogic>
    <tlLogic id="J15" type="static" programID="0" offset="0">
        <phase duration="115" state="GgrrGG"/>
        <phase duration="5"  state="GGrryy"/>
        <phase duration="30" state="GGGrrr"/>
        <phase duration="5"  state="yyGrrr"/>
        <phase duration="115" state="rrGGGr"/>
        <phase duration="5"  state="rryyyr"/>
    </tlLogic>
    <tlLogic id="J16" type="static" programID="0" offset="0">
        <phase duration="115" state="GgrrGG"/>
        <phase duration="5"  state="GGrryy"/>
        <phase duration="30" state="GGGrrr"/>
        <phase duration="5"  state="yyGrrr"/>
        <phase duration="115" state="rrGGGr"/>
        <phase duration="5"  state="rryyyr"/>
    </tlLogic>
    <tlLogic id="J17" type="static" programID="0" offset="0">
        <phase duration="115" state="GGgrrrGGgrrr"/>
        <phase duration="5"  state="yyGrrryyGrrr"/>
        <phase duration="30" state="rrGrrrrrGrrr"/>
        <phase duration="5"  state="rryrrrrryrrr"/>
        <phase duration="115" state="rrrGGgrrrGGg"/>
        <phase duration="5"  state="rrryyGrrryyG"/>
        <phase duration="30" state="rrrrrGrrrrrG"/>
        <phase duration="5"  state="rrrrryrrrrry"/>
    </tlLogic>
    <tlLogic id="J19" type="static" programID="0" offset="0">
        <phase duration="115" state="GGgrrrGGgrrr"/>
        <phase duration="5"  state="yyGrrryyGrrr"/>
        <phase duration="30" state="rrGrrrrrGrrr"/>
        <phase duration="5"  state="rryrrrrryrrr"/>
        <phase duration="115" state="rrrGGgrrrGGg"/>
        <phase duration="5"  state="rrryyGrrryyG"/>
        <phase duration="30" state="rrrrrGrrrrrG"/>
        <phase duration="5"  state="rrrrryrrrrry"/>
    </tlLogic>
    <tlLogic id="J21" type="static" programID="0" offset="0">
        <phase duration="115" state="GgrrGG"/>
        <phase duration="5"  state="GGrryy"/>
        <phase duration="30" state="GGGrrr"/>
        <phase duration="5"  state="yyGrrr"/>
        <phase duration="115" state="rrGGGr"/>
        <phase duration="5"  state="rryyyr"/>
    </tlLogic>
    <tlLogic id="J6" type="static" programID="0" offset="0">
        <phase duration="115" state="rrGGGg"/>
        <phase duration="5"  state="rryyGG"/>
        <phase duration="30" state="GrrrGG"/>
        <phase duration="5"  state="Grrryy"/>
        <phase duration="115" state="GGGrrr"/>
        <phase duration="5"  state="yyyrrr"/>
    </tlLogic>
    <tlLogic id="J7" type="static" programID="0" offset="0">
        <phase duration="115" state="GGgrrrGGgrrr"/>
        <phase duration="5"  state="yyGrrryyGrrr"/>
        <phase duration="30" state="rrGrrrrrGrrr"/>
        <phase duration="5"  state="rryrrrrryrrr"/>
        <phase duration="115" state="rrrGGgrrrGGg"/>
        <phase duration="5"  state="rrryyGrrryyG"/>
        <phase duration="30" state="rrrrrGrrrrrG"/>
        <phase duration="5"  state="rrrrryrrrrry"/>
    </tlLogic>
    <tlLogic id="J9" type="static" programID="0" offset="0">
        <phase duration="115" state="GGgrrrGGgrrr"/>
        <phase duration="5"  state="yyGrrryyGrrr"/>
        <phase duration="30" state="rrGrrrrrGrrr"/>
        <phase duration="5"  state="rryrrrrryrrr"/>
        <phase duration="115" state="rrrGGgrrrGGg"/>
        <phase duration="5"  state="rrryyGrrryyG"/>
        <phase duration="30" state="rrrrrGrrrrrG"/>
        <phase duration="5"  state="rrrrryrrrrry"/>
    </tlLogic>

    <junction id="J0" type="dead_end" x="-1100.00" y="200.00" incLanes="" intLanes="" shape="-1100.00,200.00 -1100.00,193.60"/>
    <junction id="J1" type="dead_end" x="-1100.00" y="0.00" incLanes="" intLanes="" shape="-1100.00,0.00 -1100.00,-6.40"/>
    <junction id="J10" type="traffic_light" x="300.00" y="0.00" incLanes="-E8_0 -E8_1 in3-2_0 in3-2_1 E7_0 E7_1" intLanes="" shape="293.60,10.40 306.40,10.40 306.84,8.18 307.40,7.40 308.18,6.84 309.18,6.51 310.40,6.40 310.40,-6.40 289.60,-6.40 289.60,6.40 291.82,6.84 292.60,7.40 293.16,8.18 293.49,9.18">
        <request index="0" response="001000" foes="001000"/>
        <request index="1" response="101000" foes="101000"/>
        <request index="2" response="000000" foes="000000"/>
        <request index="3" response="000000" foes="100011"/>
        <request index="4" response="000000" foes="000000"/>
        <request index="5" response="001000" foes="001010"/>
    </junction>
    <junction id="J11" type="traffic_light" x="300.00" y="100.00" incLanes="E31_0 E31_1 E8_0 E8_1 -E9_0 -E9_1" intLanes="" shape="293.60,110.40 306.40,110.40 306.40,89.60 293.60,89.60 293.16,91.82 292.60,92.60 291.82,93.16 290.82,93.49 289.60,93.60 289.60,106.40 291.82,106.84 292.60,107.40 293.16,108.18 293.49,109.18">
        <request index="0" response="000000" foes="000000"/>
        <request index="1" response="000000" foes="111000"/>
        <request index="2" response="000000" foes="000000"/>
        <request index="3" response="000010" foes="100010"/>
        <request index="4" response="000010" foes="000010"/>
        <request index="5" response="001010" foes="001010"/>
    </junction>
    <junction id="J12" type="traffic_light" x="200.00" y="100.00" incLanes="E23_0 E23_1 E9_0 E9_1 -E10_0 -E10_1 E1_0 E1_1" intLanes="" shape="193.60,110.40 206.40,110.40 206.84,108.18 207.40,107.40 208.18,106.84 209.18,106.51 210.40,106.40 210.40,93.60 208.18,93.16 207.40,92.60 206.84,91.82 206.51,90.82 206.40,89.60 193.60,89.60 193.16,91.82 192.60,92.60 191.82,93.16 190.82,93.49 189.60,93.60 189.60,106.40 191.82,106.84 192.60,107.40 193.16,108.18 193.49,109.18">
        <request index="0"  response="000000000000" foes="000000010000"/>
        <request index="1"  response="000000000000" foes="111100010000"/>
        <request index="2"  response="000010000000" foes="100010110000"/>
        <request index="3"  response="000010000000" foes="000010000000"/>
        <request index="4"  response="000010000111" foes="100010000111"/>
        <request index="5"  response="010110000100" foes="010110000100"/>
        <request index="6"  response="000000000000" foes="010000000000"/>
        <request index="7"  response="000000000000" foes="010000111100"/>
        <request index="8"  response="000000000010" foes="110000100010"/>
        <request index="9"  response="000000000010" foes="000000000010"/>
        <request index="10" response="000111000010" foes="000111100010"/>
        <request index="11" response="000100010110" foes="000100010110"/>
    </junction>
    <junction id="J13" type="dead_end" x="100.00" y="1300.00" incLanes="" intLanes="" shape="100.00,1300.00 93.60,1300.00"/>
    <junction id="J14" type="traffic_light" x="100.00" y="100.00" incLanes="E19_0 E19_1 -E1_0 -E1_1 E13_0 E13_1 -E15_0 -E15_1" intLanes="" shape="93.60,110.40 106.40,110.40 106.84,108.18 107.40,107.40 108.18,106.84 109.18,106.51 110.40,106.40 110.40,93.60 108.18,93.16 107.40,92.60 106.84,91.82 106.51,90.82 106.40,89.60 93.60,89.60 93.16,91.82 92.60,92.60 91.82,93.16 90.82,93.49 89.60,93.60 89.60,106.40 91.82,106.84 92.60,107.40 93.16,108.18 93.49,109.18">
        <request index="0"  response="000000000000" foes="000000010000"/>
        <request index="1"  response="000000000000" foes="111100010000"/>
        <request index="2"  response="000010000000" foes="100010110000"/>
        <request index="3"  response="000010000000" foes="000010000000"/>
        <request index="4"  response="000010000111" foes="100010000111"/>
        <request index="5"  response="010110000100" foes="010110000100"/>
        <request index="6"  response="000000000000" foes="010000000000"/>
        <request index="7"  response="000000000000" foes="010000111100"/>
        <request index="8"  response="000000000010" foes="110000100010"/>
        <request index="9"  response="000000000010" foes="000000000010"/>
        <request index="10" response="000111000010" foes="000111100010"/>
        <request index="11" response="000100010110" foes="000100010110"/>
    </junction>
    <junction id="J15" type="traffic_light" x="0.00" y="100.00" incLanes="-E17_0 -E17_1 E15_0 E15_1 -E16_0 -E16_1" intLanes="" shape="-6.40,110.40 6.40,110.40 6.84,108.18 7.40,107.40 8.18,106.84 9.18,106.51 10.40,106.40 10.40,93.60 8.18,93.16 7.40,92.60 6.84,91.82 6.51,90.82 6.40,89.60 -6.40,89.60">
        <request index="0" response="000000" foes="000000"/>
        <request index="1" response="100000" foes="101000"/>
        <request index="2" response="100000" foes="100000"/>
        <request index="3" response="100010" foes="100010"/>
        <request index="4" response="000000" foes="000000"/>
        <request index="5" response="000000" foes="001110"/>
    </junction>
    <junction id="J16" type="traffic_light" x="0.00" y="200.00" incLanes="-E18_0 -E18_1 E17_0 E17_1 in7-2_0 in7-2_1" intLanes="" shape="10.40,206.40 10.40,193.60 8.18,193.16 7.40,192.60 6.84,191.82 6.51,190.82 6.40,189.60 -6.40,189.60 -6.84,191.82 -7.40,192.60 -8.18,193.16 -9.18,193.49 -10.40,193.60 -10.40,206.40">
        <request index="0" response="000000" foes="000000"/>
        <request index="1" response="100000" foes="101000"/>
        <request index="2" response="100000" foes="100000"/>
        <request index="3" response="100010" foes="100010"/>
        <request index="4" response="000000" foes="000000"/>
        <request index="5" response="000000" foes="001110"/>
    </junction>
    <junction id="J17" type="traffic_light" x="100.00" y="200.00" incLanes="in8-2_0 in8-2_1 -E2_0 -E2_1 -E19_0 -E19_1 E18_0 E18_1" intLanes="" shape="93.60,210.40 106.40,210.40 106.84,208.18 107.40,207.40 108.18,206.84 109.18,206.51 110.40,206.40 110.40,193.60 108.18,193.16 107.40,192.60 106.84,191.82 106.51,190.82 106.40,189.60 93.60,189.60 93.16,191.82 92.60,192.60 91.82,193.16 90.82,193.49 89.60,193.60 89.60,206.40 91.82,206.84 92.60,207.40 93.16,208.18 93.49,209.18">
        <request index="0"  response="000000000000" foes="000000010000"/>
        <request index="1"  response="000000000000" foes="111100010000"/>
        <request index="2"  response="000010000000" foes="100010110000"/>
        <request index="3"  response="000010000000" foes="000010000000"/>
        <request index="4"  response="000010000111" foes="100010000111"/>
        <request index="5"  response="010110000100" foes="010110000100"/>
        <request index="6"  response="000000000000" foes="010000000000"/>
        <request index="7"  response="000000000000" foes="010000111100"/>
        <request index="8"  response="000000000010" foes="110000100010"/>
        <request index="9"  response="000000000010" foes="000000000010"/>
        <request index="10" response="000111000010" foes="000111100010"/>
        <request index="11" response="000100010110" foes="000100010110"/>
    </junction>