<?xml version="1.0" encoding="UTF-8"?>

<!-- generated on 2024-12-08 23:50:03 by Eclipse SUMO netedit Version 1.20.0
<configuration xmlns:xsi="http://www.w3.org/2001/XMLSchema-instance" xsi:noNamespaceSchemaLocation="http://sumo.dlr.de/xsd/neteditConfiguration.xsd">

    <input>
        <sumo-net-file value="/Users/davidneiman/Documents/GitHub.nosync/traffic-routing/surtrac_test/blocksnoN.net.xml"/>
    </input>

    <output>
        <output-file value="/Users/davidneiman/Documents/GitHub.nosync/traffic-routing/surtrac_test/blocksnoN.net.xml"/>
    </output>

    <processing>
        <geometry.min-radius.fix.railways value="false"/>
        <geometry.max-grade.fix value="false"/>
        <offset.disable-normalization value="true"/>
        <lefthand value="0"/>
    </processing>

    <junctions>
        <no-turnarounds value="true"/>
        <junctions.corner-detail value="5"/>
        <junctions.limit-turn-speed value="5.50"/>
        <rectangular-lane-cut value="0"/>
    </junctions>

    <pedestrian>
        <walkingareas value="0"/>
    </pedestrian>

</configuration>
-->

<net version="1.20" junctionCornerDetail="5" limitTurnSpeed="5.50" xmlns:xsi="http://www.w3.org/2001/XMLSchema-instance" xsi:noNamespaceSchemaLocation="http://sumo.dlr.de/xsd/net_file.xsd">

    <location netOffset="0.00,0.00" convBoundary="-100.00,-500.00,1100.00,400.00" origBoundary="-10000000000.00,-10000000000.00,10000000000.00,10000000000.00" projParameter="!"/>

    <edge id=":J1_0" function="internal">
        <lane id=":J1_0_0" index="0" speed="13.89" length="20.80" shape="10.40,4.80 -10.40,4.80"/>
    </edge>
    <edge id=":J1_1" function="internal">
        <lane id=":J1_1_0" index="0" speed="9.26" length="10.42" shape="10.40,1.60 5.15,0.85 1.40,-1.40 1.02,-2.04"/>
    </edge>
    <edge id=":J1_6" function="internal">
        <lane id=":J1_6_0" index="0" speed="9.26" length="8.93" shape="1.02,-2.04 -0.85,-5.15 -1.60,-10.40"/>
    </edge>
    <edge id=":J1_2" function="internal">
        <lane id=":J1_2_0" index="0" speed="6.51" length="9.03" shape="4.80,-10.40 5.15,-7.95 6.20,-6.20 7.95,-5.15 10.40,-4.80"/>
    </edge>
    <edge id=":J1_3" function="internal">
        <lane id=":J1_3_0" index="0" speed="9.26" length="19.35" shape="1.60,-10.40 0.85,-5.15 -1.40,-1.40 -5.15,0.85 -10.40,1.60"/>
    </edge>
    <edge id=":J1_4" function="internal">
        <lane id=":J1_4_0" index="0" speed="6.51" length="9.03" shape="-10.40,-4.80 -7.95,-5.15 -6.20,-6.20 -5.15,-7.95 -4.80,-10.40"/>
    </edge>
    <edge id=":J1_5" function="internal">
        <lane id=":J1_5_0" index="0" speed="13.89" length="20.80" shape="-10.40,-4.80 10.40,-4.80"/>
    </edge>
    <edge id=":J11_0" function="internal">
        <lane id=":J11_0_0" index="0" speed="8.96" length="18.06" shape="595.20,206.40 595.90,201.50 598.00,198.00 601.50,195.90 606.40,195.20"/>
        <lane id=":J11_0_1" index="1" speed="7.66" length="12.90" shape="598.40,206.40 598.90,202.90 600.40,200.40 602.90,198.90 606.40,198.40"/>
    </edge>
    <edge id=":J11_2" function="internal">
        <lane id=":J11_2_0" index="0" speed="3.90" length="2.58" shape="606.40,204.80 605.70,204.90 605.20,205.20 604.90,205.70 604.80,206.40"/>
        <lane id=":J11_2_1" index="1" speed="6.08" length="7.74" shape="606.40,201.60 604.30,201.90 602.80,202.80 601.90,204.30 601.60,206.40"/>
    </edge>
    <edge id=":J12_0" function="internal">
        <lane id=":J12_0_0" index="0" speed="13.89" length="20.80" shape="810.40,204.80 789.60,204.80"/>
    </edge>
    <edge id=":J12_1" function="internal">
        <lane id=":J12_1_0" index="0" speed="9.26" length="10.42" shape="810.40,201.60 805.15,200.85 801.40,198.60 801.02,197.96"/>
    </edge>
    <edge id=":J12_6" function="internal">
        <lane id=":J12_6_0" index="0" speed="9.26" length="8.93" shape="801.02,197.96 799.15,194.85 798.40,189.60"/>
    </edge>
    <edge id=":J12_2" function="internal">
        <lane id=":J12_2_0" index="0" speed="6.51" length="9.03" shape="804.80,189.60 805.15,192.05 806.20,193.80 807.95,194.85 810.40,195.20"/>
    </edge>
    <edge id=":J12_3" function="internal">
        <lane id=":J12_3_0" index="0" speed="9.26" length="19.35" shape="801.60,189.60 800.85,194.85 798.60,198.60 794.85,200.85 789.60,201.60"/>
    </edge>
    <edge id=":J12_4" function="internal">
        <lane id=":J12_4_0" index="0" speed="6.51" length="9.03" shape="789.60,195.20 792.05,194.85 793.80,193.80 794.85,192.05 795.20,189.60"/>
    </edge>
    <edge id=":J12_5" function="internal">
        <lane id=":J12_5_0" index="0" speed="13.89" length="20.80" shape="789.60,195.20 810.40,195.20"/>
    </edge>
    <edge id=":J14_0" function="internal">
        <lane id=":J14_0_0" index="0" speed="8.96" length="18.06" shape="795.20,6.40 795.90,1.50 798.00,-2.00 801.50,-4.10 806.40,-4.80"/>
        <lane id=":J14_0_1" index="1" speed="7.66" length="12.90" shape="798.40,6.40 798.90,2.90 800.40,0.40 802.90,-1.10 806.40,-1.60"/>
    </edge>
    <edge id=":J14_2" function="internal">
        <lane id=":J14_2_0" index="0" speed="3.90" length="2.58" shape="806.40,4.80 805.70,4.90 805.20,5.20 804.90,5.70 804.80,6.40"/>
        <lane id=":J14_2_1" index="1" speed="6.08" length="7.74" shape="806.40,1.60 804.30,1.90 802.80,2.80 801.90,4.30 801.60,6.40"/>
    </edge>
    <edge id=":J15_0" function="internal">
        <lane id=":J15_0_0" index="0" speed="13.89" length="20.80" shape="1010.40,4.80 989.60,4.80"/>
    </edge>
    <edge id=":J15_1" function="internal">
        <lane id=":J15_1_0" index="0" speed="9.26" length="10.42" shape="1010.40,1.60 1005.15,0.85 1001.40,-1.40 1001.02,-2.04"/>
    </edge>
    <edge id=":J15_6" function="internal">
        <lane id=":J15_6_0" index="0" speed="9.26" length="8.93" shape="1001.02,-2.04 999.15,-5.15 998.40,-10.40"/>
    </edge>
    <edge id=":J15_2" function="internal">
        <lane id=":J15_2_0" index="0" speed="6.51" length="9.03" shape="1004.80,-10.40 1005.15,-7.95 1006.20,-6.20 1007.95,-5.15 1010.40,-4.80"/>
    </edge>
    <edge id=":J15_3" function="internal">
        <lane id=":J15_3_0" index="0" speed="9.26" length="19.35" shape="1001.60,-10.40 1000.85,-5.15 998.60,-1.40 994.85,0.85 989.60,1.60"/>
    </edge>
    <edge id=":J15_4" function="internal">
        <lane id=":J15_4_0" index="0" speed="6.51" length="9.03" shape="989.60,-4.80 992.05,-5.15 993.80,-6.20 994.85,-7.95 995.20,-10.40"/>
    </edge>
    <edge id=":J15_5" function="internal">
        <lane id=":J15_5_0" index="0" speed="13.89" length="20.80" shape="989.60,-4.80 1010.40,-4.80"/>
    </edge>
    <edge id=":J16_0" function="internal">
        <lane id=":J16_0_0" index="0" speed="3.90" length="2.58" shape="995.20,-193.60 995.10,-194.30 994.80,-194.80 994.30,-195.10 993.60,-195.20"/>
        <lane id=":J16_0_1" index="1" speed="6.08" length="7.74" shape="998.40,-193.60 998.10,-195.70 997.20,-197.20 995.70,-198.10 993.60,-198.40"/>
    </edge>
    <edge id=":J16_2" function="internal">
        <lane id=":J16_2_0" index="0" speed="8.96" length="18.06" shape="993.60,-204.80 998.50,-204.10 1002.00,-202.00 1004.10,-198.50 1004.80,-193.60"/>
        <lane id=":J16_2_1" index="1" speed="7.66" length="12.90" shape="993.60,-201.60 997.10,-201.10 999.60,-199.60 1001.10,-197.10 1001.60,-193.60"/>
    </edge>
    <edge id=":J2_0" function="internal">
        <lane id=":J2_0_0" index="0" speed="8.96" length="18.06" shape="-4.80,-193.60 -4.10,-198.50 -2.00,-202.00 1.50,-204.10 6.40,-204.80"/>
        <lane id=":J2_0_1" index="1" speed="7.66" length="12.90" shape="-1.60,-193.60 -1.10,-197.10 0.40,-199.60 2.90,-201.10 6.40,-201.60"/>
    </edge>
    <edge id=":J2_2" function="internal">
        <lane id=":J2_2_0" index="0" speed="3.90" length="2.58" shape="6.40,-195.20 5.70,-195.10 5.20,-194.80 4.90,-194.30 4.80,-193.60"/>
        <lane id=":J2_2_1" index="1" speed="6.08" length="7.74" shape="6.40,-198.40 4.30,-198.10 2.80,-197.20 1.90,-195.70 1.60,-193.60"/>
    </edge>
    <edge id=":J20_0" function="internal">
        <lane id=":J20_0_0" index="0" speed="13.89" length="20.80" shape="210.40,-195.20 189.60,-195.20"/>
    </edge>
    <edge id=":J20_1" function="internal">
        <lane id=":J20_1_0" index="0" speed="9.26" length="10.42" shape="210.40,-198.40 205.15,-199.15 201.40,-201.40 201.02,-202.04"/>
    </edge>
    <edge id=":J20_6" function="internal">
        <lane id=":J20_6_0" index="0" speed="9.26" length="8.93" shape="201.02,-202.04 199.15,-205.15 198.40,-210.40"/>
    </edge>
    <edge id=":J20_2" function="internal">
        <lane id=":J20_2_0" index="0" speed="6.51" length="9.03" shape="204.80,-210.40 205.15,-207.95 206.20,-206.20 207.95,-205.15 210.40,-204.80"/>
    </edge>
    <edge id=":J20_3" function="internal">
        <lane id=":J20_3_0" index="0" speed="9.26" length="19.35" shape="201.60,-210.40 200.85,-205.15 198.60,-201.40 194.85,-199.15 189.60,-198.40"/>
    </edge>
    <edge id=":J20_4" function="internal">
        <lane id=":J20_4_0" index="0" speed="6.51" length="9.03" shape="189.60,-204.80 192.05,-205.15 193.80,-206.20 194.85,-207.95 195.20,-210.40"/>
    </edge>
    <edge id=":J20_5" function="internal">
        <lane id=":J20_5_0" index="0" speed="13.89" length="20.80" shape="189.60,-204.80 210.40,-204.80"/>
    </edge>
    <edge id=":J21_0" function="internal">
        <lane id=":J21_0_0" index="0" speed="8.96" length="18.06" shape="195.20,-393.60 195.90,-398.50 198.00,-402.00 201.50,-404.10 206.40,-404.80"/>
        <lane id=":J21_0_1" index="1" speed="7.66" length="12.90" shape="198.40,-393.60 198.90,-397.10 200.40,-399.60 202.90,-401.10 206.40,-401.60"/>
    </edge>
    <edge id=":J21_2" function="internal">
        <lane id=":J21_2_0" index="0" speed="3.90" length="2.58" shape="206.40,-395.20 205.70,-395.10 205.20,-394.80 204.90,-394.30 204.80,-393.60"/>
        <lane id=":J21_2_1" index="1" speed="6.08" length="7.74" shape="206.40,-398.40 204.30,-398.10 202.80,-397.20 201.90,-395.70 201.60,-393.60"/>
    </edge>
    <edge id=":J22_0" function="internal">
        <lane id=":J22_0_0" index="0" speed="13.89" length="20.80" shape="410.40,-395.20 389.60,-395.20"/>
    </edge>
    <edge id=":J22_1" function="internal">
        <lane id=":J22_1_0" index="0" speed="9.26" length="10.42" shape="410.40,-398.40 405.15,-399.15 401.40,-401.40 401.02,-402.04"/>
    </edge>
    <edge id=":J22_6" function="internal">
        <lane id=":J22_6_0" index="0" speed="9.26" length="8.93" shape="401.02,-402.04 399.15,-405.15 398.40,-410.40"/>
    </edge>
    <edge id=":J22_2" function="internal">
        <lane id=":J22_2_0" index="0" speed="6.51" length="9.03" shape="404.80,-410.40 405.15,-407.95 406.20,-406.20 407.95,-405.15 410.40,-404.80"/>
    </edge>
    <edge id=":J22_3" function="internal">
        <lane id=":J22_3_0" index="0" speed="9.26" length="19.35" shape="401.60,-410.40 400.85,-405.15 398.60,-401.40 394.85,-399.15 389.60,-398.40"/>
    </edge>
    <edge id=":J22_4" function="internal">
        <lane id=":J22_4_0" index="0" speed="6.51" length="9.03" shape="389.60,-404.80 392.05,-405.15 393.80,-406.20 394.85,-407.95 395.20,-410.40"/>
    </edge>
    <edge id=":J22_5" function="internal">
        <lane id=":J22_5_0" index="0" speed="13.89" length="20.80" shape="389.60,-404.80 410.40,-404.80"/>
    </edge>
    <edge id=":J26_0" function="internal">
        <lane id=":J26_0_0" index="0" speed="13.89" length="20.80" shape="610.40,-395.20 589.60,-395.20"/>
    </edge>
    <edge id=":J26_1" function="internal">
        <lane id=":J26_1_0" index="0" speed="9.26" length="10.42" shape="610.40,-398.40 605.15,-399.15 601.40,-401.40 601.02,-402.04"/>
    </edge>
    <edge id=":J26_6" function="internal">
        <lane id=":J26_6_0" index="0" speed="9.26" length="8.93" shape="601.02,-402.04 599.15,-405.15 598.40,-410.40"/>
    </edge>
    <edge id=":J26_2" function="internal">
        <lane id=":J26_2_0" index="0" speed="6.51" length="9.03" shape="604.80,-410.40 605.15,-407.95 606.20,-406.20 607.95,-405.15 610.40,-404.80"/>
    </edge>
    <edge id=":J26_3" function="internal">
        <lane id=":J26_3_0" index="0" speed="9.26" length="19.35" shape="601.60,-410.40 600.85,-405.15 598.60,-401.40 594.85,-399.15 589.60,-398.40"/>
    </edge>
    <edge id=":J26_4" function="internal">
        <lane id=":J26_4_0" index="0" speed="6.51" length="9.03" shape="589.60,-404.80 592.05,-405.15 593.80,-406.20 594.85,-407.95 595.20,-410.40"/>
    </edge>
    <edge id=":J26_5" function="internal">
        <lane id=":J26_5_0" index="0" speed="13.89" length="20.80" shape="589.60,-404.80 610.40,-404.80"/>
    </edge>
    <edge id=":J29_0" function="internal">
        <lane id=":J29_0_0" index="0" speed="3.90" length="2.58" shape="795.20,-393.60 795.10,-394.30 794.80,-394.80 794.30,-395.10 793.60,-395.20"/>
        <lane id=":J29_0_1" index="1" speed="6.08" length="7.74" shape="798.40,-393.60 798.10,-395.70 797.20,-397.20 795.70,-398.10 793.60,-398.40"/>
    </edge>
    <edge id=":J29_2" function="internal">
        <lane id=":J29_2_0" index="0" speed="8.96" length="18.06" shape="793.60,-404.80 798.50,-404.10 802.00,-402.00 804.10,-398.50 804.80,-393.60"/>
        <lane id=":J29_2_1" index="1" speed="7.66" length="12.90" shape="793.60,-401.60 797.10,-401.10 799.60,-399.60 801.10,-397.10 801.60,-393.60"/>
    </edge>
    <edge id=":J3_0" function="internal">
        <lane id=":J3_0_0" index="0" speed="3.90" length="2.58" shape="195.20,6.40 195.10,5.70 194.80,5.20 194.30,4.90 193.60,4.80"/>
        <lane id=":J3_0_1" index="1" speed="6.08" length="7.74" shape="198.40,6.40 198.10,4.30 197.20,2.80 195.70,1.90 193.60,1.60"/>
    </edge>
    <edge id=":J3_2" function="internal">
        <lane id=":J3_2_0" index="0" speed="8.96" length="18.06" shape="193.60,-4.80 198.50,-4.10 202.00,-2.00 204.10,1.50 204.80,6.40"/>
        <lane id=":J3_2_1" index="1" speed="7.66" length="12.90" shape="193.60,-1.60 197.10,-1.10 199.60,0.40 201.10,2.90 201.60,6.40"/>
    </edge>
    <edge id=":J30_0" function="internal">
        <lane id=":J30_0_0" index="0" speed="13.89" length="20.80" shape="810.40,-195.20 789.60,-195.20"/>
    </edge>
    <edge id=":J30_1" function="internal">
        <lane id=":J30_1_0" index="0" speed="9.26" length="10.42" shape="810.40,-198.40 805.15,-199.15 801.40,-201.40 801.02,-202.04"/>
    </edge>
    <edge id=":J30_6" function="internal">
        <lane id=":J30_6_0" index="0" speed="9.26" length="8.93" shape="801.02,-202.04 799.15,-205.15 798.40,-210.40"/>
    </edge>
    <edge id=":J30_2" function="internal">
        <lane id=":J30_2_0" index="0" speed="6.51" length="9.03" shape="804.80,-210.40 805.15,-207.95 806.20,-206.20 807.95,-205.15 810.40,-204.80"/>
    </edge>
    <edge id=":J30_3" function="internal">
        <lane id=":J30_3_0" index="0" speed="9.26" length="19.35" shape="801.60,-210.40 800.85,-205.15 798.60,-201.40 794.85,-199.15 789.60,-198.40"/>
    </edge>
    <edge id=":J30_4" function="internal">
        <lane id=":J30_4_0" index="0" speed="6.51" length="9.03" shape="789.60,-204.80 792.05,-205.15 793.80,-206.20 794.85,-207.95 795.20,-210.40"/>
    </edge>
    <edge id=":J30_5" function="internal">
        <lane id=":J30_5_0" index="0" speed="13.89" length="20.80" shape="789.60,-204.80 810.40,-204.80"/>
    </edge>
    <edge id=":J4_0" function="internal">
        <lane id=":J4_0_0" index="0" speed="13.89" length="20.80" shape="210.40,204.80 189.60,204.80"/>
    </edge>
    <edge id=":J4_1" function="internal">
        <lane id=":J4_1_0" index="0" speed="9.26" length="10.42" shape="210.40,201.60 205.15,200.85 201.40,198.60 201.02,197.96"/>
    </edge>
    <edge id=":J4_6" function="internal">
        <lane id=":J4_6_0" index="0" speed="9.26" length="8.93" shape="201.02,197.96 199.15,194.85 198.40,189.60"/>
    </edge>
    <edge id=":J4_2" function="internal">
        <lane id=":J4_2_0" index="0" speed="6.51" length="9.03" shape="204.80,189.60 205.15,192.05 206.20,193.80 207.95,194.85 210.40,195.20"/>
    </edge>
    <edge id=":J4_3" function="internal">
        <lane id=":J4_3_0" index="0" speed="9.26" length="19.35" shape="201.60,189.60 200.85,194.85 198.60,198.60 194.85,200.85 189.60,201.60"/>
    </edge>
    <edge id=":J4_4" function="internal">
        <lane id=":J4_4_0" index="0" speed="6.51" length="9.03" shape="189.60,195.20 192.05,194.85 193.80,193.80 194.85,192.05 195.20,189.60"/>
    </edge>
    <edge id=":J4_5" function="internal">
        <lane id=":J4_5_0" index="0" speed="13.89" length="20.80" shape="189.60,195.20 210.40,195.20"/>
    </edge>
    <edge id=":J6_0" function="internal">
        <lane id=":J6_0_0" index="0" speed="3.90" length="2.58" shape="395.20,206.40 395.10,205.70 394.80,205.20 394.30,204.90 393.60,204.80"/>
        <lane id=":J6_0_1" index="1" speed="6.08" length="7.74" shape="398.40,206.40 398.10,204.30 397.20,202.80 395.70,201.90 393.60,201.60"/>
    </edge>
    <edge id=":J6_2" function="internal">
        <lane id=":J6_2_0" index="0" speed="8.96" length="18.06" shape="393.60,195.20 398.50,195.90 402.00,198.00 404.10,201.50 404.80,206.40"/>
        <lane id=":J6_2_1" index="1" speed="7.66" length="12.90" shape="393.60,198.40 397.10,198.90 399.60,200.40 401.10,202.90 401.60,206.40"/>
    </edge>
    <edge id=":J7_0" function="internal">
        <lane id=":J7_0_0" index="0" speed="13.89" length="20.80" shape="410.40,404.80 389.60,404.80"/>
    </edge>
    <edge id=":J7_1" function="internal">
        <lane id=":J7_1_0" index="0" speed="9.26" length="10.42" shape="410.40,401.60 405.15,400.85 401.40,398.60 401.02,397.96"/>
    </edge>
    <edge id=":J7_6" function="internal">
        <lane id=":J7_6_0" index="0" speed="9.26" length="8.93" shape="401.02,397.96 399.15,394.85 398.40,389.60"/>
    </edge>
    <edge id=":J7_2" function="internal">
        <lane id=":J7_2_0" index="0" speed="6.51" length="9.03" shape="404.80,389.60 405.15,392.05 406.20,393.80 407.95,394.85 410.40,395.20"/>
    </edge>
    <edge id=":J7_3" function="internal">
        <lane id=":J7_3_0" index="0" speed="9.26" length="19.35" shape="401.60,389.60 400.85,394.85 398.60,398.60 394.85,400.85 389.60,401.60"/>
    </edge>
    <edge id=":J7_4" function="internal">
        <lane id=":J7_4_0" index="0" speed="6.51" length="9.03" shape="389.60,395.20 392.05,394.85 393.80,393.80 394.85,392.05 395.20,389.60"/>
    </edge>
    <edge id=":J7_5" function="internal">
        <lane id=":J7_5_0" index="0" speed="13.89" length="20.80" shape="389.60,395.20 410.40,395.20"/>
    </edge>
    <edge id=":J9_0" function="internal">
        <lane id=":J9_0_0" index="0" speed="13.89" length="20.80" shape="610.40,404.80 589.60,404.80"/>
    </edge>
    <edge id=":J9_1" function="internal">
        <lane id=":J9_1_0" index="0" speed="9.26" length="10.42" shape="610.40,401.60 605.15,400.85 601.40,398.60 601.02,397.96"/>
    </edge>
    <edge id=":J9_6" function="internal">
        <lane id=":J9_6_0" index="0" speed="9.26" length="8.93" shape="601.02,397.96 599.15,394.85 598.40,389.60"/>
    </edge>
    <edge id=":J9_2" function="internal">
        <lane id=":J9_2_0" index="0" speed="6.51" length="9.03" shape="604.80,389.60 605.15,392.05 606.20,393.80 607.95,394.85 610.40,395.20"/>
    </edge>
    <edge id=":J9_3" function="internal">
        <lane id=":J9_3_0" index="0" speed="9.26" length="19.35" shape="601.60,389.60 600.85,394.85 598.60,398.60 594.85,400.85 589.60,401.60"/>
    </edge>
    <edge id=":J9_4" function="internal">
        <lane id=":J9_4_0" index="0" speed="6.51" length="9.03" shape="589.60,395.20 592.05,394.85 593.80,393.80 594.85,392.05 595.20,389.60"/>
    </edge>
    <edge id=":J9_5" function="internal">
        <lane id=":J9_5_0" index="0" speed="13.89" length="20.80" shape="589.60,395.20 610.40,395.20"/>
    </edge>

    <edge id="-E1" from="J2" to="J1" priority="-1">
        <lane id="-E1_0" index="0" speed="13.89" length="183.20" shape="4.80,-193.60 4.80,-10.40"/>
        <lane id="-E1_1" index="1" speed="13.89" length="183.20" shape="1.60,-193.60 1.60,-10.40"/>
    </edge>
    <edge id="-E10" from="J11" to="J9" priority="-1">
        <lane id="-E10_0" index="0" speed="13.89" length="183.20" shape="604.80,206.40 604.80,389.60"/>
        <lane id="-E10_1" index="1" speed="13.89" length="183.20" shape="601.60,206.40 601.60,389.60"/>
    </edge>
    <edge id="-E11" from="J12" to="J11" priority="-1">
        <lane id="-E11_0" index="0" speed="13.89" length="183.20" shape="789.60,204.80 606.40,204.80"/>
        <lane id="-E11_1" index="1" speed="13.89" length="183.20" shape="789.60,201.60 606.40,201.60"/>
    </edge>
    <edge id="-E13" from="J14" to="J12" priority="-1">
        <lane id="-E13_0" index="0" speed="13.89" length="183.20" shape="804.80,6.40 804.80,189.60"/>
        <lane id="-E13_1" index="1" speed="13.89" length="183.20" shape="801.60,6.40 801.60,189.60"/>
    </edge>
    <edge id="-E14" from="J15" to="J14" priority="-1">
        <lane id="-E14_0" index="0" speed="13.89" length="183.20" shape="989.60,4.80 806.40,4.80"/>
        <lane id="-E14_1" index="1" speed="13.89" length="183.20" shape="989.60,1.60 806.40,1.60"/>
    </edge>
    <edge id="-E15" from="J16" to="J15" priority="-1">
        <lane id="-E15_0" index="0" speed="13.89" length="183.20" shape="1004.80,-193.60 1004.80,-10.40"/>
        <lane id="-E15_1" index="1" speed="13.89" length="183.20" shape="1001.60,-193.60 1001.60,-10.40"/>
    </edge>
    <edge id="-E18" from="J20" to="J2" priority="-1">
        <lane id="-E18_0" index="0" speed="13.89" length="183.20" shape="189.60,-195.20 6.40,-195.20"/>
        <lane id="-E18_1" index="1" speed="13.89" length="183.20" shape="189.60,-198.40 6.40,-198.40"/>
    </edge>
    <edge id="-E19" from="J21" to="J20" priority="-1">
        <lane id="-E19_0" index="0" speed="13.89" length="183.20" shape="204.80,-393.60 204.80,-210.40"/>
        <lane id="-E19_1" index="1" speed="13.89" length="183.20" shape="201.60,-393.60 201.60,-210.40"/>
    </edge>
    <edge id="-E2" from="J3" to="J1" priority="-1">
        <lane id="-E2_0" index="0" speed="13.89" length="183.20" shape="193.60,4.80 10.40,4.80"/>
        <lane id="-E2_1" index="1" speed="13.89" length="183.20" shape="193.60,1.60 10.40,1.60"/>
    </edge>
    <edge id="-E20" from="J22" to="J21" priority="-1">
        <lane id="-E20_0" index="0" speed="13.89" length="183.20" shape="389.60,-395.20 206.40,-395.20"/>
        <lane id="-E20_1" index="1" speed="13.89" length="183.20" shape="389.60,-398.40 206.40,-398.40"/>
    </edge>
    <edge id="-E24" from="J26" to="J22" priority="-1">
        <lane id="-E24_0" index="0" speed="13.89" length="179.20" shape="589.60,-395.20 410.40,-395.20"/>
        <lane id="-E24_1" index="1" speed="13.89" length="179.20" shape="589.60,-398.40 410.40,-398.40"/>
    </edge>
    <edge id="-E28" from="J30" to="J29" priority="-1">
        <lane id="-E28_0" index="0" speed="13.89" length="183.20" shape="795.20,-210.40 795.20,-393.60"/>
        <lane id="-E28_1" index="1" speed="13.89" length="183.20" shape="798.40,-210.40 798.40,-393.60"/>
    </edge>
    <edge id="-E29" from="J16" to="J30" priority="-1">
        <lane id="-E29_0" index="0" speed="13.89" length="183.20" shape="993.60,-195.20 810.40,-195.20"/>
        <lane id="-E29_1" index="1" speed="13.89" length="183.20" shape="993.60,-198.40 810.40,-198.40"/>
    </edge>
    <edge id="-E3" from="J4" to="J3" priority="-1">
        <lane id="-E3_0" index="0" speed="13.89" length="183.20" shape="195.20,189.60 195.20,6.40"/>
        <lane id="-E3_1" index="1" speed="13.89" length="183.20" shape="198.40,189.60 198.40,6.40"/>
    </edge>
    <edge id="-E31" from="J29" to="J26" priority="-1">
        <lane id="-E31_0" index="0" speed="13.89" length="183.20" shape="793.60,-395.20 610.40,-395.20"/>
        <lane id="-E31_1" index="1" speed="13.89" length="183.20" shape="793.60,-398.40 610.40,-398.40"/>
    </edge>
    <edge id="-E32" from="J20" to="J30" priority="-1" type="traffic_light">
        <lane id="-E32_0" index="0" speed="13.89" length="579.20" shape="210.40,-204.80 789.60,-204.80"/>
        <lane id="-E32_1" index="1" speed="13.89" length="579.20" shape="210.40,-201.60 789.60,-201.60"/>
    </edge>
    <edge id="-E5" from="J6" to="J4" priority="-1">
        <lane id="-E5_0" index="0" speed="13.89" length="183.20" shape="393.60,204.80 210.40,204.80"/>
        <lane id="-E5_1" index="1" speed="13.89" length="183.20" shape="393.60,201.60 210.40,201.60"/>
    </edge>
    <edge id="-E6" from="J7" to="J6" priority="-1">
        <lane id="-E6_0" index="0" speed="13.89" length="183.20" shape="395.20,389.60 395.20,206.40"/>
        <lane id="-E6_1" index="1" speed="13.89" length="183.20" shape="398.40,389.60 398.40,206.40"/>
    </edge>
    <edge id="-E8" from="J9" to="J7" priority="-1">
        <lane id="-E8_0" index="0" speed="13.89" length="179.20" shape="589.60,404.80 410.40,404.80"/>
        <lane id="-E8_1" index="1" speed="13.89" length="179.20" shape="589.60,401.60 410.40,401.60"/>
    </edge>
    <edge id="E1" from="J1" to="J2" priority="-1">
        <lane id="E1_0" index="0" speed="13.89" length="183.20" shape="-4.80,-10.40 -4.80,-193.60"/>
        <lane id="E1_1" index="1" speed="13.89" length="183.20" shape="-1.60,-10.40 -1.60,-193.60"/>
    </edge>
    <edge id="E10" from="J9" to="J11" priority="-1">
        <lane id="E10_0" index="0" speed="13.89" length="183.20" shape="595.20,389.60 595.20,206.40"/>
        <lane id="E10_1" index="1" speed="13.89" length="183.20" shape="598.40,389.60 598.40,206.40"/>
    </edge>
    <edge id="E11" from="J11" to="J12" priority="-1">
        <lane id="E11_0" index="0" speed="13.89" length="183.20" shape="606.40,195.20 789.60,195.20"/>
        <lane id="E11_1" index="1" speed="13.89" length="183.20" shape="606.40,198.40 789.60,198.40"/>
    </edge>
    <edge id="E13" from="J12" to="J14" priority="-1">
        <lane id="E13_0" index="0" speed="13.89" length="183.20" shape="795.20,189.60 795.20,6.40"/>
        <lane id="E13_1" index="1" speed="13.89" length="183.20" shape="798.40,189.60 798.40,6.40"/>
    </edge>
    <edge id="E14" from="J14" to="J15" priority="-1">
        <lane id="E14_0" index="0" speed="13.89" length="183.20" shape="806.40,-4.80 989.60,-4.80"/>
        <lane id="E14_1" index="1" speed="13.89" length="183.20" shape="806.40,-1.60 989.60,-1.60"/>
    </edge>
    <edge id="E15" from="J15" to="J16" priority="-1">
        <lane id="E15_0" index="0" speed="13.89" length="183.20" shape="995.20,-10.40 995.20,-193.60"/>
        <lane id="E15_1" index="1" speed="13.89" length="183.20" shape="998.40,-10.40 998.40,-193.60"/>
    </edge>
    <edge id="E18" from="J2" to="J20" priority="-1">
        <lane id="E18_0" index="0" speed="13.89" length="183.20" shape="6.40,-204.80 189.60,-204.80"/>
        <lane id="E18_1" index="1" speed="13.89" length="183.20" shape="6.40,-201.60 189.60,-201.60"/>
    </edge>
    <edge id="E19" from="J20" to="J21" priority="-1">
        <lane id="E19_0" index="0" speed="13.89" length="183.20" shape="195.20,-210.40 195.20,-393.60"/>
        <lane id="E19_1" index="1" speed="13.89" length="183.20" shape="198.40,-210.40 198.40,-393.60"/>
    </edge>
    <edge id="E2" from="J1" to="J3" priority="-1">
        <lane id="E2_0" index="0" speed="13.89" length="183.20" shape="10.40,-4.80 193.60,-4.80"/>
        <lane id="E2_1" index="1" speed="13.89" length="183.20" shape="10.40,-1.60 193.60,-1.60"/>
    </edge>
    <edge id="E20" from="J21" to="J22" priority="-1">
        <lane id="E20_0" index="0" speed="13.89" length="183.20" shape="206.40,-404.80 389.60,-404.80"/>
        <lane id="E20_1" index="1" speed="13.89" length="183.20" shape="206.40,-401.60 389.60,-401.60"/>
    </edge>
    <edge id="E24" from="J22" to="J26" priority="-1">
        <lane id="E24_0" index="0" speed="13.89" length="179.20" shape="410.40,-404.80 589.60,-404.80"/>
        <lane id="E24_1" index="1" speed="13.89" length="179.20" shape="410.40,-401.60 589.60,-401.60"/>
    </edge>
    <edge id="E28" from="J29" to="J30" priority="-1">
        <lane id="E28_0" index="0" speed="13.89" length="183.20" shape="804.80,-393.60 804.80,-210.40"/>
        <lane id="E28_1" index="1" speed="13.89" length="183.20" shape="801.60,-393.60 801.60,-210.40"/>
    </edge>
    <edge id="E29" from="J30" to="J16" priority="-1">
        <lane id="E29_0" index="0" speed="13.89" length="183.20" shape="810.40,-204.80 993.60,-204.80"/>
        <lane id="E29_1" index="1" speed="13.89" length="183.20" shape="810.40,-201.60 993.60,-201.60"/>
    </edge>
    <edge id="E3" from="J3" to="J4" priority="-1">
        <lane id="E3_0" index="0" speed="13.89" length="183.20" shape="204.80,6.40 204.80,189.60"/>
        <lane id="E3_1" index="1" speed="13.89" length="183.20" shape="201.60,6.40 201.60,189.60"/>
    </edge>
    <edge id="E31" from="J26" to="J29" priority="-1">
        <lane id="E31_0" index="0" speed="13.89" length="183.20" shape="610.40,-404.80 793.60,-404.80"/>
        <lane id="E31_1" index="1" speed="13.89" length="183.20" shape="610.40,-401.60 793.60,-401.60"/>
    </edge>
    <edge id="E32" from="J30" to="J20" priority="-1">
        <lane id="E32_0" index="0" speed="13.89" length="579.20" shape="789.60,-195.20 210.40,-195.20"/>
        <lane id="E32_1" index="1" speed="13.89" length="579.20" shape="789.60,-198.40 210.40,-198.40"/>
    </edge>
    <edge id="E5" from="J4" to="J6" priority="-1">
        <lane id="E5_0" index="0" speed="13.89" length="183.20" shape="210.40,195.20 393.60,195.20"/>
        <lane id="E5_1" index="1" speed="13.89" length="183.20" shape="210.40,198.40 393.60,198.40"/>
    </edge>
    <edge id="E6" from="J6" to="J7" priority="-1">
        <lane id="E6_0" index="0" speed="13.89" length="183.20" shape="404.80,206.40 404.80,389.60"/>
        <lane id="E6_1" index="1" speed="13.89" length="183.20" shape="401.60,206.40 401.60,389.60"/>
    </edge>
    <edge id="E8" from="J7" to="J9" priority="-1">
        <lane id="E8_0" index="0" speed="13.89" length="179.20" shape="410.40,395.20 589.60,395.20"/>