<?xml version="1.0" encoding="UTF-8"?>

<!-- generated on 2023-08-06 19:36:39 by Eclipse SUMO netedit Version 1.18.0
<configuration xmlns:xsi="http://www.w3.org/2001/XMLSchema-instance" xsi:noNamespaceSchemaLocation="http://sumo.dlr.de/xsd/neteditConfiguration.xsd">

    <input>
        <sumo-net-file value="blocks4.net.xml"/>
    </input>

    <output>
        <output-file value="blocks4.net.xml"/>
    </output>

    <processing>
        <geometry.min-radius.fix.railways value="false"/>
        <geometry.max-grade.fix value="false"/>
        <offset.disable-normalization value="true"/>
        <lefthand value="0"/>
    </processing>

    <junctions>
        <no-turnarounds value="true"/>
        <junctions.corner-detail value="5"/>
        <junctions.limit-turn-speed value="5.50"/>
        <rectangular-lane-cut value="0"/>
    </junctions>

    <pedestrian>
        <walkingareas value="0"/>
    </pedestrian>

</configuration>
-->

<net version="1.16" junctionCornerDetail="5" limitTurnSpeed="5.50" xmlns:xsi="http://www.w3.org/2001/XMLSchema-instance" xsi:noNamespaceSchemaLocation="http://sumo.dlr.de/xsd/net_file.xsd">

    <location netOffset="0.00,0.00" convBoundary="-1100.00,-1100.00,1400.00,1300.00" origBoundary="-10000000000.00,-10000000000.00,10000000000.00,10000000000.00" projParameter="!"/>

    <edge id=":J10_0" function="internal">
        <lane id=":J10_0_0" index="0" speed="9.05" length="12.26" shape="322.66,17.90 320.36,18.78 318.38,20.60 316.73,23.34 315.41,27.02"/>
    </edge>
    <edge id=":J10_1" function="internal">
        <lane id=":J10_1_0" index="0" speed="13.89" length="20.49" shape="322.66,17.90 316.65,18.78 312.30,19.02 307.93,18.78 301.86,18.19"/>
        <lane id=":J10_1_1" index="1" speed="13.89" length="20.49" shape="322.13,14.75 316.26,15.62 312.18,15.85 308.09,15.59 302.17,15.00"/>
    </edge>
    <edge id=":J10_3" function="internal">
        <lane id=":J10_3_0" index="0" speed="13.89" length="18.82" shape="302.77,8.63 308.20,9.18 311.95,9.43 315.68,9.23 321.07,8.44"/>
        <lane id=":J10_3_1" index="1" speed="13.89" length="18.82" shape="302.47,11.82 308.15,12.39 312.07,12.64 315.97,12.42 321.60,11.59"/>
    </edge>
    <edge id=":J10_5" function="internal">
        <lane id=":J10_5_0" index="0" speed="9.01" length="5.13" shape="302.47,11.82 307.46,13.03"/>
    </edge>
    <edge id=":J10_9" function="internal">
        <lane id=":J10_9_0" index="0" speed="9.01" length="15.63" shape="307.46,13.03 308.15,13.19 311.68,16.04 313.08,20.36 312.33,26.16"/>
    </edge>
    <edge id=":J10_6" function="internal">
        <lane id=":J10_6_0" index="0" speed="6.16" length="9.05" shape="306.16,24.44 306.49,21.92 305.88,20.03 304.34,18.79 301.86,18.19"/>
        <lane id=":J10_6_1" index="1" speed="7.72" length="14.91" shape="309.25,25.30 309.78,21.14 308.78,18.04 306.24,15.99 302.17,15.00"/>
    </edge>
    <edge id=":J10_8" function="internal">
        <lane id=":J10_8_0" index="0" speed="11.30" length="19.51" shape="309.25,25.30 311.29,19.87 314.03,15.77 317.47,13.01 321.60,11.59"/>
    </edge>
    <edge id=":J11_0" function="internal">
        <lane id=":J11_0_0" index="0" speed="6.93" length="8.37" shape="285.59,112.59 284.98,110.55 283.81,109.01 282.10,107.99 279.84,107.46"/>
    </edge>
    <edge id=":J11_1" function="internal">
        <lane id=":J11_1_0" index="0" speed="13.89" length="18.36" shape="285.59,112.59 284.86,107.01 284.77,103.13 285.41,99.29 286.86,93.85"/>
        <lane id=":J11_1_1" index="1" speed="13.89" length="18.36" shape="288.75,112.12 288.07,106.94 287.99,103.33 288.59,99.76 289.94,94.71"/>
    </edge>
    <edge id=":J11_3" function="internal">
        <lane id=":J11_3_0" index="0" speed="13.89" length="15.67" shape="296.11,96.42 294.96,100.71 294.45,103.73 294.51,106.79 295.09,111.19"/>
        <lane id=":J11_3_1" index="1" speed="13.89" length="15.67" shape="293.02,95.56 291.77,100.23 291.22,103.53 291.29,106.87 291.92,111.65"/>
    </edge>
    <edge id=":J11_5" function="internal">
        <lane id=":J11_5_0" index="0" speed="9.31" length="4.60" shape="293.02,95.56 291.20,99.78"/>
    </edge>
    <edge id=":J11_9" function="internal">
        <lane id=":J11_9_0" index="0" speed="9.31" length="12.53" shape="291.20,99.78 288.45,102.64 284.78,104.14 280.18,104.28"/>
    </edge>
    <edge id=":J11_6" function="internal">
        <lane id=":J11_6_0" index="0" speed="6.54" length="7.99" shape="280.87,97.92 283.01,97.85 284.72,97.15 286.01,95.82 286.86,93.85"/>
        <lane id=":J11_6_1" index="1" speed="8.05" length="12.56" shape="280.52,101.10 283.89,101.00 286.59,99.90 288.60,97.80 289.94,94.71"/>
    </edge>
    <edge id=":J11_8" function="internal">
        <lane id=":J11_8_0" index="0" speed="9.61" length="16.89" shape="280.52,101.10 284.99,102.16 288.37,104.27 290.68,107.44 291.92,111.65"/>
    </edge>
    <edge id=":J12_0" function="internal">
        <lane id=":J12_0_0" index="0" speed="7.10" length="10.60" shape="189.95,105.82 189.24,102.63 187.94,100.40 186.05,99.15 183.59,98.86"/>
    </edge>
    <edge id=":J12_1" function="internal">
        <lane id=":J12_1_0" index="0" speed="13.89" length="23.29" shape="189.95,105.82 189.29,99.33 189.05,94.01 189.28,88.69 190.02,82.22"/>
        <lane id=":J12_1_1" index="1" speed="13.89" length="23.29" shape="193.13,105.45 192.47,99.09 192.23,94.04 192.45,89.00 193.19,82.65"/>
    </edge>
    <edge id=":J12_3" function="internal">
        <lane id=":J12_3_0" index="0" speed="8.97" length="5.28" shape="193.13,105.45 193.28,100.17"/>
    </edge>
    <edge id=":J12_16" function="internal">
        <lane id=":J12_16_0" index="0" speed="8.97" length="15.87" shape="193.28,100.17 193.30,99.46 195.41,95.40 199.46,93.26 205.45,93.04"/>
    </edge>
    <edge id=":J12_4" function="internal">
        <lane id=":J12_4_0" index="0" speed="6.08" length="9.06" shape="204.77,99.40 202.20,99.50 200.47,100.41 199.56,102.16 199.49,104.72"/>
    </edge>
    <edge id=":J12_5" function="internal">
        <lane id=":J12_5_0" index="0" speed="13.89" length="21.52" shape="204.77,99.40 198.67,98.77 194.19,98.46 189.71,98.49 183.59,98.86"/>
        <lane id=":J12_5_1" index="1" speed="13.89" length="21.52" shape="205.11,96.22 198.92,95.58 194.25,95.28 189.57,95.30 183.36,95.67"/>
    </edge>
    <edge id=":J12_7" function="internal">
        <lane id=":J12_7_0" index="0" speed="9.47" length="5.33" shape="205.11,96.22 199.93,94.98"/>
    </edge>
    <edge id=":J12_17" function="internal">
        <lane id=":J12_17_0" index="0" speed="9.47" length="15.39" shape="199.93,94.98 199.28,94.83 195.35,92.10 193.32,88.04 193.19,82.65"/>
    </edge>
    <edge id=":J12_8" function="internal">
        <lane id=":J12_8_0" index="0" speed="6.81" length="10.20" shape="199.53,83.51 199.64,86.00 200.72,87.89 202.77,89.18 205.79,89.86"/>
    </edge>
    <edge id=":J12_9" function="internal">
        <lane id=":J12_9_0" index="0" speed="13.89" length="21.70" shape="199.53,83.51 198.79,89.61 198.58,94.11 198.82,98.61 199.49,104.72"/>
        <lane id=":J12_9_1" index="1" speed="13.89" length="21.70" shape="196.36,83.08 195.62,89.30 195.40,94.07 195.65,98.85 196.31,105.09"/>
    </edge>
    <edge id=":J12_11" function="internal">
        <lane id=":J12_11_0" index="0" speed="10.16" length="4.77" shape="196.36,83.08 195.11,87.68"/>
    </edge>
    <edge id=":J12_18" function="internal">
        <lane id=":J12_18_0" index="0" speed="10.16" length="15.06" shape="195.11,87.68 194.95,88.28 192.31,92.11 188.45,94.57 183.36,95.67"/>
    </edge>
    <edge id=":J12_12" function="internal">
        <lane id=":J12_12_0" index="0" speed="7.69" length="10.98" shape="182.91,89.28 185.68,88.67 187.79,87.30 189.23,85.14 190.02,82.22"/>
    </edge>
    <edge id=":J12_13" function="internal">
        <lane id=":J12_13_0" index="0" speed="13.89" length="22.66" shape="182.91,89.28 189.29,88.92 194.36,88.90 199.43,89.22 205.79,89.86"/>
        <lane id=":J12_13_1" index="1" speed="13.89" length="22.66" shape="183.13,92.47 189.43,92.11 194.30,92.09 199.17,92.40 205.45,93.04"/>
    </edge>
    <edge id=":J12_15" function="internal">
        <lane id=":J12_15_0" index="0" speed="9.69" length="4.74" shape="183.13,92.47 187.85,92.91"/>
    </edge>
    <edge id=":J12_19" function="internal">
        <lane id=":J12_19_0" index="0" speed="9.69" length="15.84" shape="187.85,92.91 188.32,92.95 192.24,95.21 194.91,99.26 196.31,105.09"/>
    </edge>
    <edge id=":J14_0" function="internal">
        <lane id=":J14_0_0" index="0" speed="6.51" length="9.03" shape="95.88,110.68 95.37,108.26 94.21,106.58 92.40,105.64 89.93,105.45"/>
    </edge>
    <edge id=":J14_1" function="internal">
        <lane id=":J14_1_0" index="0" speed="13.89" length="20.97" shape="95.88,110.68 94.67,89.73"/>
        <lane id=":J14_1_1" index="1" speed="13.89" length="20.97" shape="99.08,110.47 97.87,89.56"/>
    </edge>
    <edge id=":J14_3" function="internal">
        <lane id=":J14_3_0" index="0" speed="9.31" length="5.14" shape="99.08,110.47 99.48,105.35"/>
    </edge>
    <edge id=":J14_16" function="internal">
        <lane id=":J14_16_0" index="0" speed="9.31" length="14.33" shape="99.48,105.35 99.49,105.19 101.52,101.29 105.15,98.78 110.39,97.66"/>
    </edge>
    <edge id=":J14_4" function="internal">
        <lane id=":J14_4_0" index="0" speed="6.58" length="9.20" shape="110.85,104.04 108.35,104.57 106.63,105.75 105.66,107.58 105.46,110.06"/>
    </edge>
    <edge id=":J14_5" function="internal">
        <lane id=":J14_5_0" index="0" speed="13.89" length="20.95" shape="110.85,104.04 89.93,105.45"/>
        <lane id=":J14_5_1" index="1" speed="13.89" length="20.95" shape="110.62,100.85 89.73,102.26"/>
    </edge>
    <edge id=":J14_7" function="internal">
        <lane id=":J14_7_0" index="0" speed="9.23" length="5.13" shape="110.62,100.85 105.50,100.48"/>
    </edge>
    <edge id=":J14_17" function="internal">
        <lane id=":J14_17_0" index="0" speed="9.23" length="14.37" shape="105.50,100.48 105.27,100.47 101.36,98.46 98.90,94.82 97.87,89.56"/>
    </edge>
    <edge id=":J14_8" function="internal">
        <lane id=":J14_8_0" index="0" speed="6.46" length="9.03" shape="104.26,89.24 104.74,91.67 105.88,93.36 107.69,94.29 110.16,94.46"/>
    </edge>
    <edge id=":J14_9" function="internal">
        <lane id=":J14_9_0" index="0" speed="13.89" length="20.88" shape="104.26,89.24 105.46,110.06"/>
        <lane id=":J14_9_1" index="1" speed="13.89" length="20.88" shape="101.06,89.40 102.27,110.27"/>
    </edge>
    <edge id=":J14_11" function="internal">
        <lane id=":J14_11_0" index="0" speed="9.33" length="4.85" shape="101.06,89.40 100.63,94.23"/>
    </edge>
    <edge id=":J14_18" function="internal">
        <lane id=":J14_18_0" index="0" speed="9.33" length="14.64" shape="100.63,94.23 100.59,94.74 98.54,98.66 94.92,101.17 89.73,102.26"/>
    </edge>
    <edge id=":J14_12" function="internal">
        <lane id=":J14_12_0" index="0" speed="6.61" length="9.26" shape="89.32,95.87 91.77,95.35 93.48,94.15 94.45,92.28 94.67,89.73"/>
    </edge>
    <edge id=":J14_13" function="internal">
        <lane id=":J14_13_0" index="0" speed="13.89" length="20.90" shape="89.32,95.87 110.16,94.46"/>
        <lane id=":J14_13_1" index="1" speed="13.89" length="20.90" shape="89.53,99.06 110.39,97.66"/>
    </edge>
    <edge id=":J14_15" function="internal">
        <lane id=":J14_15_0" index="0" speed="9.26" length="4.89" shape="89.53,99.06 94.40,99.45"/>
    </edge>
    <edge id=":J14_19" function="internal">
        <lane id=":J14_19_0" index="0" speed="9.26" length="14.46" shape="94.40,99.45 94.81,99.48 98.70,101.48 101.18,105.08 102.27,110.27"/>
    </edge>
    <edge id=":J15_0" function="internal">
        <lane id=":J15_0_0" index="0" speed="7.16" length="10.02" shape="15.91,110.16 13.01,110.68 10.89,111.82 9.54,113.58 8.97,115.96"/>
        <lane id=":J15_0_1" index="1" speed="8.55" length="14.70" shape="15.70,106.96 11.57,107.73 8.54,109.45 6.61,112.12 5.78,115.74"/>
    </edge>
    <edge id=":J15_2" function="internal">
        <lane id=":J15_2_0" index="0" speed="9.17" length="19.80" shape="15.70,106.96 10.25,106.53 6.35,104.44 3.99,100.69 3.18,95.28"/>
    </edge>
    <edge id=":J15_3" function="internal">
        <lane id=":J15_3_0" index="0" speed="6.38" length="9.04" shape="9.58,95.24 9.95,97.71 11.03,99.42 12.81,100.38 15.30,100.58"/>
    </edge>
    <edge id=":J15_4" function="internal">
        <lane id=":J15_4_0" index="0" speed="13.89" length="20.61" shape="9.58,95.24 8.97,115.96"/>
        <lane id=":J15_4_1" index="1" speed="13.89" length="20.61" shape="6.38,95.26 5.78,115.74"/>
    </edge>
    <edge id=":J15_6" function="internal">
        <lane id=":J15_6_0" index="0" speed="13.89" length="20.14" shape="-0.61,115.30 -0.02,95.29"/>
        <lane id=":J15_6_1" index="1" speed="13.89" length="20.14" shape="2.58,115.52 3.18,95.28"/>
    </edge>
    <edge id=":J15_8" function="internal">
        <lane id=":J15_8_0" index="0" speed="9.74" length="3.75" shape="2.58,115.52 3.41,111.86"/>
    </edge>
    <edge id=":J15_9" function="internal">
        <lane id=":J15_9_0" index="0" speed="9.74" length="15.63" shape="3.41,111.86 3.67,110.67 6.19,107.09 10.13,104.79 15.50,103.77"/>
    </edge>
    <edge id=":J16_0" function="internal">
        <lane id=":J16_0_0" index="0" speed="13.89" length="21.92" shape="10.01,206.24 3.77,206.74 -1.01,207.01 -5.78,207.08 -12.05,206.97"/>
        <lane id=":J16_0_1" index="1" speed="13.89" length="21.92" shape="9.74,203.05 3.55,203.55 -1.10,203.82 -5.76,203.88 -11.97,203.77"/>
    </edge>
    <edge id=":J16_2" function="internal">
        <lane id=":J16_2_0" index="0" speed="9.04" length="5.06" shape="9.74,203.05 4.69,202.75"/>
    </edge>
    <edge id=":J16_9" function="internal">
        <lane id=":J16_9_0" index="0" speed="9.04" length="15.50" shape="4.69,202.75 3.99,202.71 0.01,200.57 -2.19,196.62 -2.62,190.88"/>
    </edge>
    <edge id=":J16_3" function="internal">
        <lane id=":J16_3_0" index="0" speed="6.20" length="9.05" shape="3.77,191.32 3.96,193.85 4.93,195.58 6.68,196.53 9.21,196.68"/>
        <lane id=":J16_3_1" index="1" speed="7.75" length="14.81" shape="0.58,191.10 0.88,195.23 2.47,198.08 5.33,199.62 9.48,199.87"/>
    </edge>
    <edge id=":J16_5" function="internal">
        <lane id=":J16_5_0" index="0" speed="9.59" length="20.13" shape="0.58,191.10 -0.54,196.75 -3.01,200.75 -6.82,203.09 -11.97,203.77"/>
    </edge>
    <edge id=":J16_6" function="internal">
        <lane id=":J16_6_0" index="0" speed="6.96" length="10.14" shape="-11.81,197.37 -9.36,197.00 -7.55,195.76 -6.36,193.65 -5.81,190.66"/>
    </edge>
    <edge id=":J16_7" function="internal">
        <lane id=":J16_7_0" index="0" speed="13.89" length="21.22" shape="-11.81,197.37 -5.71,197.49 -1.29,197.43 3.13,197.17 9.21,196.68"/>
        <lane id=":J16_7_1" index="1" speed="13.89" length="21.22" shape="-11.89,200.57 -5.74,200.68 -1.19,200.62 3.34,200.36 9.48,199.87"/>
    </edge>
    <edge id=":J17_0" function="internal">
        <lane id=":J17_0_0" index="0" speed="6.99" length="10.13" shape="116.10,198.15 113.66,198.58 111.87,199.86 110.71,201.99 110.20,204.97"/>
    </edge>
    <edge id=":J17_1" function="internal">
        <lane id=":J17_1_0" index="0" speed="13.89" length="21.13" shape="116.10,198.15 95.12,199.09"/>
        <lane id=":J17_1_1" index="1" speed="13.89" length="21.13" shape="116.10,194.95 94.85,195.90"/>
    </edge>
    <edge id=":J17_3" function="internal">
        <lane id=":J17_3_0" index="0" speed="9.43" length="3.82" shape="116.10,194.95 112.32,194.41"/>
    </edge>
    <edge id=":J17_16" function="internal">
        <lane id=":J17_16_0" index="0" speed="9.43" length="15.32" shape="112.32,194.41 111.00,194.22 107.25,192.01 104.84,188.34 103.79,183.20"/>
    </edge>
    <edge id=":J17_4" function="internal">
        <lane id=":J17_4_0" index="0" speed="6.74" length="9.30" shape="110.18,182.78 110.69,185.31 111.84,187.11 113.65,188.19 116.10,188.55"/>
    </edge>
    <edge id=":J17_5" function="internal">
        <lane id=":J17_5_0" index="0" speed="13.89" length="22.02" shape="110.18,182.78 110.53,189.06 110.64,193.88 110.52,198.70 110.20,204.97"/>
        <lane id=":J17_5_1" index="1" speed="13.89" length="22.02" shape="106.98,182.99 107.34,189.20 107.45,193.89 107.33,198.58 107.00,204.79"/>
    </edge>
    <edge id=":J17_7" function="internal">
        <lane id=":J17_7_0" index="0" speed="9.49" length="4.84" shape="106.98,182.99 106.55,187.81"/>
    </edge>
    <edge id=":J17_17" function="internal">
        <lane id=":J17_17_0" index="0" speed="9.49" length="15.27" shape="106.55,187.81 106.51,188.23 104.33,192.13 100.45,194.68 94.85,195.90"/>
    </edge>
    <edge id=":J17_8" function="internal">
        <lane id=":J17_8_0" index="0" speed="6.84" length="9.93" shape="94.32,189.52 97.20,188.93 99.21,187.71 100.34,185.87 100.60,183.40"/>
    </edge>
    <edge id=":J17_9" function="internal">
        <lane id=":J17_9_0" index="0" speed="13.89" length="21.67" shape="94.32,189.52 116.10,188.55"/>
        <lane id=":J17_9_1" index="1" speed="13.89" length="21.67" shape="94.59,192.71 116.10,191.75"/>
    </edge>
    <edge id=":J17_11" function="internal">
        <lane id=":J17_11_0" index="0" speed="9.06" length="5.72" shape="94.59,192.71 100.30,193.05"/>
    </edge>
    <edge id=":J17_18" function="internal">
        <lane id=":J17_18_0" index="0" speed="9.06" length="14.74" shape="100.30,193.05 104.27,195.18 106.51,199.09 107.00,204.79"/>
    </edge>
    <edge id=":J17_12" function="internal">
        <lane id=":J17_12_0" index="0" speed="6.22" length="9.05" shape="100.61,204.43 100.39,201.91 99.41,200.18 97.65,199.24 95.12,199.09"/>
    </edge>
    <edge id=":J17_13" function="internal">
        <lane id=":J17_13_0" index="0" speed="13.89" length="21.24" shape="100.61,204.43 100.94,198.34 101.06,193.91 100.95,189.49 100.60,183.40"/>
        <lane id=":J17_13_1" index="1" speed="13.89" length="21.24" shape="103.81,204.61 104.14,198.46 104.25,193.90 104.14,189.35 103.79,183.20"/>
    </edge>
    <edge id=":J17_15" function="internal">
        <lane id=":J17_15_0" index="0" speed="9.61" length="5.43" shape="103.81,204.61 104.80,199.27"/>
    </edge>
    <edge id=":J17_19" function="internal">
        <lane id=":J17_19_0" index="0" speed="9.61" length="14.59" shape="104.80,199.27 104.85,198.98 107.25,194.97 110.99,192.55 116.10,191.75"/>
    </edge>
    <edge id=":J19_0" function="internal">
        <lane id=":J19_0_0" index="0" speed="6.26" length="9.05" shape="215.12,199.96 212.59,199.90 210.76,200.68 209.60,202.31 209.13,204.79"/>
    </edge>
    <edge id=":J19_1" function="internal">
        <lane id=":J19_1_0" index="0" speed="13.89" length="21.84" shape="215.12,199.96 209.01,198.97 204.44,198.43 199.85,198.20 193.66,198.15"/>
        <lane id=":J19_1_1" index="1" speed="13.89" length="21.84" shape="215.65,196.80 209.46,195.81 204.71,195.25 199.93,195.00 193.66,194.95"/>
    </edge>
    <edge id=":J19_3" function="internal">
        <lane id=":J19_3_0" index="0" speed="10.93" length="5.07" shape="215.65,196.80 210.80,195.31"/>
    </edge>
    <edge id=":J19_16" function="internal">
        <lane id=":J19_16_0" index="0" speed="10.93" length="16.41" shape="210.80,195.31 210.20,195.13 206.10,192.17 203.36,187.94 201.97,182.43"/>
    </edge>
    <edge id=":J19_4" function="internal">
        <lane id=":J19_4_0" index="0" speed="8.65" length="13.16" shape="208.33,181.70 209.18,185.07 210.86,187.66 213.37,189.47 216.72,190.49"/>
    </edge>
    <edge id=":J19_5" function="internal">
        <lane id=":J19_5_0" index="0" speed="13.89" length="22.89" shape="208.33,181.70 209.00,188.09 209.33,193.22 209.35,198.37 209.13,204.79"/>
        <lane id=":J19_5_1" index="1" speed="13.89" length="22.89" shape="205.15,182.06 205.82,188.38 206.14,193.33 206.16,198.30 205.93,204.65"/>
    </edge>
    <edge id=":J19_7" function="internal">
        <lane id=":J19_7_0" index="0" speed="9.09" length="5.26" shape="205.15,182.06 205.00,187.32"/>
    </edge>
    <edge id=":J19_17" function="internal">
        <lane id=":J19_17_0" index="0" speed="9.09" length="14.98" shape="205.00,187.32 204.99,187.70 203.02,191.73 199.25,194.14 193.66,194.95"/>
    </edge>
    <edge id=":J19_8" function="internal">
        <lane id=":J19_8_0" index="0" speed="6.27" length="9.04" shape="193.66,188.55 196.16,188.19 197.84,187.11 198.72,185.31 198.80,182.79"/>
    </edge>
    <edge id=":J19_9" function="internal">
        <lane id=":J19_9_0" index="0" speed="13.89" length="22.91" shape="193.66,188.55 200.10,188.62 205.24,188.90 210.36,189.49 216.72,190.49"/>
        <lane id=":J19_9_1" index="1" speed="13.89" length="22.91" shape="193.66,191.75 200.01,191.81 204.98,192.07 209.91,192.65 216.18,193.65"/>
    </edge>
    <edge id=":J19_11" function="internal">
        <lane id=":J19_11_0" index="0" speed="9.36" length="5.28" shape="193.66,191.75 198.89,192.50"/>
    </edge>
    <edge id=":J19_18" function="internal">
        <lane id=":J19_18_0" index="0" speed="9.36" length="15.23" shape="198.89,192.50 199.25,192.56 203.16,194.97 205.38,199.00 205.93,204.65"/>
    </edge>
    <edge id=":J19_12" function="internal">
        <lane id=":J19_12_0" index="0" speed="6.66" length="9.85" shape="199.54,204.36 199.27,201.64 198.21,199.70 196.34,198.54 193.66,198.15"/>
    </edge>
    <edge id=":J19_13" function="internal">
        <lane id=":J19_13_0" index="0" speed="13.89" length="21.87" shape="199.54,204.36 199.77,198.17 199.76,193.55 199.46,188.95 198.80,182.79"/>
        <lane id=":J19_13_1" index="1" speed="13.89" length="21.87" shape="202.73,204.50 202.97,198.23 202.95,193.44 202.64,188.66 201.97,182.43"/>
    </edge>
    <edge id=":J19_15" function="internal">
        <lane id=":J19_15_0" index="0" speed="9.08" length="4.68" shape="202.73,204.50 203.61,199.90"/>
    </edge>
    <edge id=":J19_19" function="internal">
        <lane id=":J19_19_0" index="0" speed="9.08" length="15.63" shape="203.61,199.90 203.79,198.94 206.39,195.27 210.52,193.51 216.18,193.65"/>
    </edge>
    <edge id=":J21_0" function="internal">
        <lane id=":J21_0_0" index="0" speed="13.89" length="23.73" shape="315.45,213.96 308.89,214.48 303.40,214.45 297.93,213.90 291.41,212.87"/>
        <lane id=":J21_0_1" index="1" speed="13.89" length="23.73" shape="315.11,210.78 308.68,211.30 303.50,211.28 298.33,210.74 291.94,209.72"/>
    </edge>
    <edge id=":J21_2" function="internal">
        <lane id=":J21_2_0" index="0" speed="9.82" length="4.81" shape="315.11,210.78 310.31,210.47"/>
    </edge>
    <edge id=":J21_9" function="internal">
        <lane id=":J21_9_0" index="0" speed="9.82" length="16.46" shape="310.31,210.47 309.89,210.44 305.87,208.17 303.03,203.97 301.39,197.84"/>
    </edge>
    <edge id=":J21_3" function="internal">
        <lane id=":J21_3_0" index="0" speed="7.29" length="11.27" shape="307.72,196.91 308.59,200.42 309.99,202.84 311.94,204.17 314.42,204.42"/>
        <lane id=":J21_3_1" index="1" speed="8.65" length="16.26" shape="304.56,197.38 305.81,202.20 307.93,205.51 310.92,207.31 314.77,207.60"/>
    </edge>
    <edge id=":J21_5" function="internal">
        <lane id=":J21_5_0" index="0" speed="8.89" length="22.01" shape="304.56,197.38 304.59,203.72 302.50,207.89 298.28,209.89 291.94,209.72"/>
    </edge>
    <edge id=":J21_6" function="internal">
        <lane id=":J21_6_0" index="0" speed="5.93" length="9.09" shape="293.01,203.41 295.63,203.48 297.37,202.65 298.24,200.93 298.22,198.31"/>
    </edge>
    <edge id=":J21_7" function="internal">
        <lane id=":J21_7_0" index="0" speed="13.89" length="21.98" shape="293.01,203.41 299.12,204.42 303.69,204.94 308.27,204.95 314.42,204.42"/>
        <lane id=":J21_7_1" index="1" speed="13.89" length="21.98" shape="292.48,206.56 298.72,207.58 303.59,208.11 308.48,208.12 314.77,207.60"/>
    </edge>
    <edge id=":J22_0" function="internal">
        <lane id=":J22_0_0" index="0" speed="13.89" length="2.25" shape="401.21,204.80 400.59,204.80 400.17,204.82 399.75,204.85 399.14,204.92"/>
        <lane id=":J22_0_1" index="1" speed="13.89" length="2.25" shape="401.21,201.60 400.49,201.60 400.00,201.62 399.51,201.66 398.80,201.74"/>
    </edge>
    <edge id=":J23_0" function="internal">
        <lane id=":J23_0_0" index="0" speed="13.89" length="1.34" shape="400.80,4.80 400.49,4.80 400.27,4.82 400.06,4.86 399.74,4.91"/>
        <lane id=":J23_0_1" index="1" speed="13.89" length="1.34" shape="400.80,1.60 400.33,1.61 400.00,1.63 399.68,1.68 399.21,1.76"/>
    </edge>
    <edge id=":J24_0" function="internal">
        <lane id=":J24_0_0" index="0" speed="13.89" length="3.01" shape="-101.48,195.20 -98.44,195.24"/>
        <lane id=":J24_0_1" index="1" speed="13.89" length="3.01" shape="-101.48,198.40 -98.52,198.44"/>
    </edge>
    <edge id=":J25_0" function="internal">
        <lane id=":J25_0_0" index="0" speed="13.89" length="2.59" shape="-101.36,-4.80 -98.89,-4.90"/>
        <lane id=":J25_0_1" index="1" speed="13.89" length="2.59" shape="-101.36,-1.60 -98.65,-1.71"/>
    </edge>
    <edge id=":J27_0" function="internal">
        <lane id=":J27_0_0" index="0" speed="13.89" length="2.97" shape="195.20,301.45 195.27,298.41"/>
        <lane id=":J27_0_1" index="1" speed="13.89" length="2.97" shape="198.40,301.45 198.46,298.55"/>
    </edge>
    <edge id=":J28_0" function="internal">
        <lane id=":J28_0_0" index="0" speed="13.89" length="2.78" shape="204.80,-101.43 204.87,-98.74"/>
        <lane id=":J28_0_1" index="1" speed="13.89" length="2.78" shape="201.60,-101.43 201.68,-98.57"/>
    </edge>
    <edge id=":J29_0" function="internal">
        <lane id=":J29_0_0" index="0" speed="13.89" length="2.93" shape="95.20,301.42 95.28,298.40"/>
        <lane id=":J29_0_1" index="1" speed="13.89" length="2.93" shape="98.40,301.42 98.48,298.58"/>
    </edge>
    <edge id=":J30_0" function="internal">
        <lane id=":J30_0_0" index="0" speed="13.89" length="2.97" shape="104.80,-101.45 104.73,-98.41"/>
        <lane id=":J30_0_1" index="1" speed="13.89" length="2.97" shape="101.60,-101.45 101.53,-98.55"/>
    </edge>
    <edge id=":J6_0" function="internal">
        <lane id=":J6_0_0" index="0" speed="6.49" length="9.46" shape="-0.51,3.56 -0.88,0.85 -1.96,-1.02 -3.75,-2.05 -6.24,-2.26"/>
        <lane id=":J6_0_1" index="1" speed="7.99" length="14.89" shape="2.69,3.54 2.10,-0.65 0.37,-3.54 -2.49,-5.14 -6.48,-5.45"/>
    </edge>
    <edge id=":J6_2" function="internal">
        <lane id=":J6_2_0" index="0" speed="9.05" length="20.49" shape="2.69,3.54 3.48,-2.14 5.92,-5.93 10.00,-7.84 15.74,-7.87"/>
    </edge>
    <edge id=":J6_3" function="internal">
        <lane id=":J6_3_0" index="0" speed="6.22" length="9.05" shape="14.85,-1.53 12.32,-1.52 10.52,-0.67 9.44,1.00 9.09,3.51"/>
    </edge>
    <edge id=":J6_4" function="internal">
        <lane id=":J6_4_0" index="0" speed="13.89" length="21.52" shape="14.85,-1.53 8.78,-2.33 4.33,-2.69 -0.13,-2.65 -6.24,-2.26"/>
        <lane id=":J6_4_1" index="1" speed="13.89" length="21.52" shape="15.30,-4.70 9.12,-5.51 4.43,-5.87 -0.27,-5.84 -6.48,-5.45"/>
    </edge>
    <edge id=":J6_6" function="internal">
        <lane id=":J6_6_0" index="0" speed="13.89" length="22.88" shape="-6.96,-11.83 -0.53,-12.22 4.63,-12.23 9.79,-11.85 16.18,-11.04"/>
        <lane id=":J6_6_1" index="1" speed="13.89" length="22.88" shape="-6.72,-8.64 -0.40,-9.03 4.53,-9.05 9.45,-8.68 15.74,-7.87"/>
    </edge>
    <edge id=":J6_8" function="internal">
        <lane id=":J6_8_0" index="0" speed="9.24" length="5.18" shape="-6.72,-8.64 -1.56,-8.26"/>
    </edge>
    <edge id=":J6_9" function="internal">
        <lane id=":J6_9_0" index="0" speed="9.24" length="15.13" shape="-1.56,-8.26 -1.23,-8.23 2.70,-6.07 5.08,-2.15 5.89,3.53"/>
    </edge>
    <edge id=":J7_0" function="internal">
        <lane id=":J7_0_0" index="0" speed="7.86" length="11.68" shape="90.91,15.77 90.32,12.76 88.91,10.48 86.66,8.92 83.58,8.07"/>
    </edge>
    <edge id=":J7_1" function="internal">
        <lane id=":J7_1_0" index="0" speed="13.89" length="22.02" shape="90.91,15.77 90.62,9.50 90.53,4.69 90.61,-0.12 90.87,-6.39"/>
        <lane id=":J7_1_1" index="1" speed="13.89" length="22.02" shape="94.11,15.60 93.82,9.38 93.72,4.68 93.81,-0.02 94.07,-6.24"/>
    </edge>
    <edge id=":J7_3" function="internal">
        <lane id=":J7_3_0" index="0" speed="9.19" length="5.14" shape="94.11,15.60 94.58,10.49"/>
    </edge>
    <edge id=":J7_16" function="internal">
        <lane id=":J7_16_0" index="0" speed="9.19" length="14.60" shape="94.58,10.49 94.61,10.19 96.74,6.32 100.50,3.98 105.89,3.18"/>
    </edge>
    <edge id=":J7_4" function="internal">
        <lane id=":J7_4_0" index="0" speed="6.42" length="9.07" shape="105.93,9.58 103.44,9.95 101.71,11.02 100.73,12.80 100.50,15.28"/>
    </edge>
    <edge id=":J7_5" function="internal">
        <lane id=":J7_5_0" index="0" speed="13.89" length="22.20" shape="105.93,9.58 99.61,9.56 94.72,9.36 89.84,8.90 83.58,8.07"/>
        <lane id=":J7_5_1" index="1" speed="13.89" length="22.20" shape="105.91,6.38 99.66,6.37 94.93,6.18 90.21,5.72 84.02,4.90"/>
    </edge>
    <edge id=":J7_7" function="internal">
        <lane id=":J7_7_0" index="0" speed="9.23" length="5.11" shape="105.91,6.38 100.85,5.66"/>
    </edge>
    <edge id=":J7_17" function="internal">
        <lane id=":J7_17_0" index="0" speed="9.23" length="14.86" shape="100.85,5.66 100.51,5.62 96.74,3.26 94.59,-0.70 94.07,-6.24"/>
    </edge>
    <edge id=":J7_8" function="internal">
        <lane id=":J7_8_0" index="0" speed="6.47" length="9.26" shape="100.46,-5.95 100.70,-3.34 101.68,-1.49 103.40,-0.38 105.87,-0.02"/>
    </edge>
    <edge id=":J7_9" function="internal">
        <lane id=":J7_9_0" index="0" speed="13.89" length="21.40" shape="100.46,-5.95 100.20,0.18 100.12,4.67 100.21,9.15 100.50,15.28"/>