<?xml version="1.0" encoding="UTF-8"?>
<routes xmlns:xsi="http://www.w3.org/2001/XMLSchema-instance" xsi:noNamespaceSchemaLocation="http://sumo.dlr.de/xsd/routes_file.xsd">

<vType id="noVar" speedFactor="1.0" speedDev="0.0"/>
<trip type="noVar" depart="0" id="Sflow21.0" from="in2" to="out1"/>
<trip type="noVar" depart="0" id="Sflow31.0" from="in3" to="out1"/>
<trip type="noVar" depart="0" id="Sflow41.0" from="in4" to="out1"/>
<trip type="noVar" depart="0" id="Sflow51.0" from="in5" to="out1"/>
<trip type="noVar" depart="0" id="Sflow61.0" from="in6" to="out1"/>
<trip type="noVar" depart="0" id="Sflow71.0" from="in7" to="out1"/>
<trip type="noVar" depart="0" id="Sflow81.0" from="in8" to="out1"/>
<trip type="noVar" depart="4" id="Sflow12.0" from="in1" to="out2"/>
<trip type="noVar" depart="4" id="Sflow32.0" from="in3" to="out2"/>
<trip type="noVar" depart="4" id="Sflow42.0" from="in4" to="out2"/>
<trip type="noVar" depart="4" id="Sflow52.0" from="in5" to="out2"/>
<trip type="noVar" depart="4" id="Sflow62.0" from="in6" to="out2"/>
<trip type="noVar" depart="4" id="Sflow72.0" from="in7" to="out2"/>
<trip type="noVar" depart="4" id="Sflow82.0" from="in8" to="out2"/>
<trip type="noVar" depart="8" id="Sflow13.0" from="in1" to="out3"/>
<trip type="noVar" depart="8" id="Sflow23.0" from="in2" to="out3"/>
<trip type="noVar" depart="8" id="Sflow43.0" from="in4" to="out3"/>
<trip type="noVar" depart="8" id="Sflow53.0" from="in5" to="out3"/>
<trip type="noVar" depart="8" id="Sflow63.0" from="in6" to="out3"/>
<trip type="noVar" depart="8" id="Sflow73.0" from="in7" to="out3"/>
<trip type="noVar" depart="8" id="Sflow83.0" from="in8" to="out3"/>
<trip type="noVar" depart="12" id="Sflow14.0" from="in1" to="out4"/>
<trip type="noVar" depart="12" id="Sflow24.0" from="in2" to="out4"/>
<trip type="noVar" depart="12" id="Sflow34.0" from="in3" to="out4"/>
<trip type="noVar" depart="12" id="Sflow54.0" from="in5" to="out4"/>
<trip type="noVar" depart="12" id="Sflow64.0" from="in6" to="out4"/>
<trip type="noVar" depart="12" id="Sflow74.0" from="in7" to="out4"/>
<trip type="noVar" depart="12" id="Sflow84.0" from="in8" to="out4"/>
<trip type="noVar" depart="16" id="Sflow15.0" from="in1" to="out5"/>
<trip type="noVar" depart="16" id="Sflow25.0" from="in2" to="out5"/>
<trip type="noVar" depart="16" id="Sflow35.0" from="in3" to="out5"/>
<trip type="noVar" depart="16" id="Sflow45.0" from="in4" to="out5"/>
<trip type="noVar" depart="16" id="Sflow65.0" from="in6" to="out5"/>
<trip type="noVar" depart="16" id="Sflow75.0" from="in7" to="out5"/>
<trip type="noVar" depart="16" id="Sflow85.0" from="in8" to="out5"/>
<trip type="noVar" depart="20" id="Sflow16.0" from="in1" to="out6"/>
<trip type="noVar" depart="20" id="Sflow26.0" from="in2" to="out6"/>
<trip type="noVar" depart="20" id="Sflow36.0" from="in3" to="out6"/>
<trip type="noVar" depart="20" id="Sflow46.0" from="in4" to="out6"/>
<trip type="noVar" depart="20" id="Sflow56.0" from="in5" to="out6"/>
<trip type="noVar" depart="20" id="Sflow76.0" from="in7" to="out6"/>
<trip type="noVar" depart="20" id="Sflow86.0" from="in8" to="out6"/>
<trip type="noVar" depart="24" id="Sflow17.0" from="in1" to="out7"/>
<trip type="noVar" depart="24" id="Sflow27.0" from="in2" to="out7"/>
<trip type="noVar" depart="24" id="Sflow37.0" from="in3" to="out7"/>
<trip type="noVar" depart="24" id="Sflow47.0" from="in4" to="out7"/>
<trip type="noVar" depart="24" id="Sflow57.0" from="in5" to="out7"/>
<trip type="noVar" depart="24" id="Sflow67.0" from="in6" to="out7"/>
<trip type="noVar" depart="24" id="Sflow87.0" from="in8" to="out7"/>
<trip type="noVar" depart="28" id="Sflow18.0" from="in1" to="out8"/>
<trip type="noVar" depart="28" id="Sflow28.0" from="in2" to="out8"/>
<trip type="noVar" depart="28" id="Sflow38.0" from="in3" to="out8"/>
<trip type="noVar" depart="28" id="Sflow48.0" from="in4" to="out8"/>
<trip type="noVar" depart="28" id="Sflow58.0" from="in5" to="out8"/>
<trip type="noVar" depart="28" id="Sflow68.0" from="in6" to="out8"/>
<trip type="noVar" depart="28" id="Sflow78.0" from="in7" to="out8"/>
<trip type="noVar" depart="39" id="Sflow21.1" from="in2" to="out1"/>
<trip type="noVar" depart="39" id="Sflow31.1" from="in3" to="out1"/>
<trip type="noVar" depart="39" id="Sflow41.1" from="in4" to="out1"/>
<trip type="noVar" depart="39" id="Sflow51.1" from="in5" to="out1"/>
<trip type="noVar" depart="39" id="Sflow61.1" from="in6" to="out1"/>
<trip type="noVar" depart="39" id="Sflow71.1" from="in7" to="out1"/>
<trip type="noVar" depart="39" id="Sflow81.1" from="in8" to="out1"/>
<trip type="noVar" depart="43" id="Sflow12.1" from="in1" to="out2"/>
<trip type="noVar" depart="43" id="Sflow32.1" from="in3" to="out2"/>
<trip type="noVar" depart="43" id="Sflow42.1" from="in4" to="out2"/>
<trip type="noVar" depart="43" id="Sflow52.1" from="in5" to="out2"/>
<trip type="noVar" depart="43" id="Sflow62.1" from="in6" to="out2"/>
<trip type="noVar" depart="43" id="Sflow72.1" from="in7" to="out2"/>
<trip type="noVar" depart="43" id="Sflow82.1" from="in8" to="out2"/>
<trip type="noVar" depart="47" id="Sflow13.1" from="in1" to="out3"/>
<trip type="noVar" depart="47" id="Sflow23.1" from="in2" to="out3"/>
<trip type="noVar" depart="47" id="Sflow43.1" from="in4" to="out3"/>
<trip type="noVar" depart="47" id="Sflow53.1" from="in5" to="out3"/>
<trip type="noVar" depart="47" id="Sflow63.1" from="in6" to="out3"/>
<trip type="noVar" depart="47" id="Sflow73.1" from="in7" to="out3"/>
<trip type="noVar" depart="47" id="Sflow83.1" from="in8" to="out3"/>
<trip type="noVar" depart="51" id="Sflow14.1" from="in1" to="out4"/>
<trip type="noVar" depart="51" id="Sflow24.1" from="in2" to="out4"/>
<trip type="noVar" depart="51" id="Sflow34.1" from="in3" to="out4"/>
<trip type="noVar" depart="51" id="Sflow54.1" from="in5" to="out4"/>
<trip type="noVar" depart="51" id="Sflow64.1" from="in6" to="out4"/>
<trip type="noVar" depart="51" id="Sflow74.1" from="in7" to="out4"/>
<trip type="noVar" depart="51" id="Sflow84.1" from="in8" to="out4"/>
<trip type="noVar" depart="55" id="Sflow15.1" from="in1" to="out5"/>
<trip type="noVar" depart="55" id="Sflow25.1" from="in2" to="out5"/>
<trip type="noVar" depart="55" id="Sflow35.1" from="in3" to="out5"/>
<trip type="noVar" depart="55" id="Sflow45.1" from="in4" to="out5"/>
<trip type="noVar" depart="55" id="Sflow65.1" from="in6" to="out5"/>
<trip type="noVar" depart="55" id="Sflow75.1" from="in7" to="out5"/>
<trip type="noVar" depart="55" id="Sflow85.1" from="in8" to="out5"/>
<trip type="noVar" depart="59" id="Sflow16.1" from="in1" to="out6"/>
<trip type="noVar" depart="59" id="Sflow26.1" from="in2" to="out6"/>
<trip type="noVar" depart="59" id="Sflow36.1" from="in3" to="out6"/>
<trip type="noVar" depart="59" id="Sflow46.1" from="in4" to="out6"/>
<trip type="noVar" depart="59" id="Sflow56.1" from="in5" to="out6"/>
<trip type="noVar" depart="59" id="Sflow76.1" from="in7" to="out6"/>
<trip type="noVar" depart="59" id="Sflow86.1" from="in8" to="out6"/>
<trip type="noVar" depart="63" id="Sflow17.1" from="in1" to="out7"/>
<trip type="noVar" depart="63" id="Sflow27.1" from="in2" to="out7"/>
<trip type="noVar" depart="63" id="Sflow37.1" from="in3" to="out7"/>
<trip type="noVar" depart="63" id="Sflow47.1" from="in4" to="out7"/>
<trip type="noVar" depart="63" id="Sflow57.1" from="in5" to="out7"/>
<trip type="noVar" depart="63" id="Sflow67.1" from="in6" to="out7"/>
<trip type="noVar" depart="63" id="Sflow87.1" from="in8" to="out7"/>
<trip type="noVar" depart="67" id="Sflow18.1" from="in1" to="out8"/>
<trip type="noVar" depart="67" id="Sflow28.1" from="in2" to="out8"/>
<trip type="noVar" depart="67" id="Sflow38.1" from="in3" to="out8"/>
<trip type="noVar" depart="67" id="Sflow48.1" from="in4" to="out8"/>
<trip type="noVar" depart="67" id="Sflow58.1" from="in5" to="out8"/>
<trip type="noVar" depart="67" id="Sflow68.1" from="in6" to="out8"/>
<trip type="noVar" depart="67" id="Sflow78.1" from="in7" to="out8"/>
<trip type="noVar" depart="79" id="Sflow21.2" from="in2" to="out1"/>
<trip type="noVar" depart="79" id="Sflow31.2" from="in3" to="out1"/>
<trip type="noVar" depart="79" id="Sflow41.2" from="in4" to="out1"/>
<trip type="noVar" depart="79" id="Sflow51.2" from="in5" to="out1"/>
<trip type="noVar" depart="79" id="Sflow61.2" from="in6" to="out1"/>
<trip type="noVar" depart="79" id="Sflow71.2" from="in7" to="out1"/>
<trip type="noVar" depart="79" id="Sflow81.2" from="in8" to="out1"/>
<trip type="noVar" depart="83" id="Sflow12.2" from="in1" to="out2"/>
<trip type="noVar" depart="83" id="Sflow32.2" from="in3" to="out2"/>
<trip type="noVar" depart="83" id="Sflow42.2" from="in4" to="out2"/>
<trip type="noVar" depart="83" id="Sflow52.2" from="in5" to="out2"/>
<trip type="noVar" depart="83" id="Sflow62.2" from="in6" to="out2"/>
<trip type="noVar" depart="83" id="Sflow72.2" from="in7" to="out2"/>
<trip type="noVar" depart="83" id="Sflow82.2" from="in8" to="out2"/>
<trip type="noVar" depart="87" id="Sflow13.2" from="in1" to="out3"/>
<trip type="noVar" depart="87" id="Sflow23.2" from="in2" to="out3"/>
<trip type="noVar" depart="87" id="Sflow43.2" from="in4" to="out3"/>
<trip type="noVar" depart="87" id="Sflow53.2" from="in5" to="out3"/>
<trip type="noVar" depart="87" id="Sflow63.2" from="in6" to="out3"/>
<trip type="noVar" depart="87" id="Sflow73.2" from="in7" to="out3"/>
<trip type="noVar" depart="87" id="Sflow83.2" from="in8" to="out3"/>
<trip type="noVar" depart="91" id="Sflow14.2" from="in1" to="out4"/>
<trip type="noVar" depart="91" id="Sflow24.2" from="in2" to="out4"/>
<trip type="noVar" depart="91" id="Sflow34.2" from="in3" to="out4"/>
<trip type="noVar" depart="91" id="Sflow54.2" from="in5" to="out4"/>
<trip type="noVar" depart="91" id="Sflow64.2" from="in6" to="out4"/>
<trip type="noVar" depart="91" id="Sflow74.2" from="in7" to="out4"/>
<trip type="noVar" depart="91" id="Sflow84.2" from="in8" to="out4"/>
<trip type="noVar" depart="95" id="Sflow15.2" from="in1" to="out5"/>
<trip type="noVar" depart="95" id="Sflow25.2" from="in2" to="out5"/>
<trip type="noVar" depart="95" id="Sflow35.2" from="in3" to="out5"/>
<trip type="noVar" depart="95" id="Sflow45.2" from="in4" to="out5"/>
<trip type="noVar" depart="95" id="Sflow65.2" from="in6" to="out5"/>
<trip type="noVar" depart="95" id="Sflow75.2" from="in7" to="out5"/>
<trip type="noVar" depart="95" id="Sflow85.2" from="in8" to="out5"/>
<trip type="noVar" depart="99" id="Sflow16.2" from="in1" to="out6"/>
<trip type="noVar" depart="99" id="Sflow26.2" from="in2" to="out6"/>
<trip type="noVar" depart="99" id="Sflow36.2" from="in3" to="out6"/>
<trip type="noVar" depart="99" id="Sflow46.2" from="in4" to="out6"/>
<trip type="noVar" depart="99" id="Sflow56.2" from="in5" to="out6"/>
<trip type="noVar" depart="99" id="Sflow76.2" from="in7" to="out6"/>
<trip type="noVar" depart="99" id="Sflow86.2" from="in8" to="out6"/>
<trip type="noVar" depart="103" id="Sflow17.2" from="in1" to="out7"/>
<trip type="noVar" depart="103" id="Sflow27.2" from="in2" to="out7"/>
<trip type="noVar" depart="103" id="Sflow37.2" from="in3" to="out7"/>
<trip type="noVar" depart="103" id="Sflow47.2" from="in4" to="out7"/>
<trip type="noVar" depart="103" id="Sflow57.2" from="in5" to="out7"/>
<trip type="noVar" depart="103" id="Sflow67.2" from="in6" to="out7"/>
<trip type="noVar" depart="103" id="Sflow87.2" from="in8" to="out7"/>
<trip type="noVar" depart="107" id="Sflow18.2" from="in1" to="out8"/>
<trip type="noVar" depart="107" id="Sflow28.2" from="in2" to="out8"/>
<trip type="noVar" depart="107" id="Sflow38.2" from="in3" to="out8"/>
<trip type="noVar" depart="107" id="Sflow48.2" from="in4" to="out8"/>
<trip type="noVar" depart="107" id="Sflow58.2" from="in5" to="out8"/>
<trip type="noVar" depart="107" id="Sflow68.2" from="in6" to="out8"/>
<trip type="noVar" depart="107" id="Sflow78.2" from="in7" to="out8"/>
<trip type="noVar" depart="118" id="Sflow21.3" from="in2" to="out1"/>
<trip type="noVar" depart="118" id="Sflow31.3" from="in3" to="out1"/>
<trip type="noVar" depart="118" id="Sflow41.3" from="in4" to="out1"/>
<trip type="noVar" depart="118" id="Sflow51.3" from="in5" to="out1"/>
<trip type="noVar" depart="118" id="Sflow61.3" from="in6" to="out1"/>
<trip type="noVar" depart="118" id="Sflow71.3" from="in7" to="out1"/>
<trip type="noVar" depart="118" id="Sflow81.3" from="in8" to="out1"/>
<trip type="noVar" depart="122" id="Sflow12.3" from="in1" to="out2"/>
<trip type="noVar" depart="122" id="Sflow32.3" from="in3" to="out2"/>
<trip type="noVar" depart="122" id="Sflow42.3" from="in4" to="out2"/>
<trip type="noVar" depart="122" id="Sflow52.3" from="in5" to="out2"/>
<trip type="noVar" depart="122" id="Sflow62.3" from="in6" to="out2"/>
<trip type="noVar" depart="122" id="Sflow72.3" from="in7" to="out2"/>
<trip type="noVar" depart="122" id="Sflow82.3" from="in8" to="out2"/>
<trip type="noVar" depart="126" id="Sflow13.3" from="in1" to="out3"/>
<trip type="noVar" depart="126" id="Sflow23.3" from="in2" to="out3"/>
<trip type="noVar" depart="126" id="Sflow43.3" from="in4" to="out3"/>
<trip type="noVar" depart="126" id="Sflow53.3" from="in5" to="out3"/>
<trip type="noVar" depart="126" id="Sflow63.3" from="in6" to="out3"/>
<trip type="noVar" depart="126" id="Sflow73.3" from="in7" to="out3"/>
<trip type="noVar" depart="126" id="Sflow83.3" from="in8" to="out3"/>
<trip type="noVar" depart="130" id="Sflow14.3" from="in1" to="out4"/>
<trip type="noVar" depart="130" id="Sflow24.3" from="in2" to="out4"/>
<trip type="noVar" depart="130" id="Sflow34.3" from="in3" to="out4"/>
<trip type="noVar" depart="130" id="Sflow54.3" from="in5" to="out4"/>
<trip type="noVar" depart="130" id="Sflow64.3" from="in6" to="out4"/>
<trip type="noVar" depart="130" id="Sflow74.3" from="in7" to="out4"/>
<trip type="noVar" depart="130" id="Sflow84.3" from="in8" to="out4"/>
<trip type="noVar" depart="134" id="Sflow15.3" from="in1" to="out5"/>
<trip type="noVar" depart="134" id="Sflow25.3" from="in2" to="out5"/>
<trip type="noVar" depart="134" id="Sflow35.3" from="in3" to="out5"/>
<trip type="noVar" depart="134" id="Sflow45.3" from="in4" to="out5"/>
<trip type="noVar" depart="134" id="Sflow65.3" from="in6" to="out5"/>
<trip type="noVar" depart="134" id="Sflow75.3" from="in7" to="out5"/>
<trip type="noVar" depart="134" id="Sflow85.3" from="in8" to="out5"/>
<trip type="noVar" depart="138" id="Sflow16.3" from="in1" to="out6"/>
<trip type="noVar" depart="138" id="Sflow26.3" from="in2" to="out6"/>
<trip type="noVar" depart="138" id="Sflow36.3" from="in3" to="out6"/>
<trip type="noVar" depart="138" id="Sflow46.3" from="in4" to="out6"/>
<trip type="noVar" depart="138" id="Sflow56.3" from="in5" to="out6"/>
<trip type="noVar" depart="138" id="Sflow76.3" from="in7" to="out6"/>
<trip type="noVar" depart="138" id="Sflow86.3" from="in8" to="out6"/>
<trip type="noVar" depart="142" id="Sflow17.3" from="in1" to="out7"/>
<trip type="noVar" depart="142" id="Sflow27.3" from="in2" to="out7"/>
<trip type="noVar" depart="142" id="Sflow37.3" from="in3" to="out7"/>
<trip type="noVar" depart="142" id="Sflow47.3" from="in4" to="out7"/>
<trip type="noVar" depart="142" id="Sflow57.3" from="in5" to="out7"/>
<trip type="noVar" depart="142" id="Sflow67.3" from="in6" to="out7"/>
<trip type="noVar" depart="142" id="Sflow87.3" from="in8" to="out7"/>
<trip type="noVar" depart="146" id="Sflow18.3" from="in1" to="out8"/>
<trip type="noVar" depart="146" id="Sflow28.3" from="in2" to="out8"/>
<trip type="noVar" depart="146" id="Sflow38.3" from="in3" to="out8"/>
<trip type="noVar" depart="146" id="Sflow48.3" from="in4" to="out8"/>
<trip type="noVar" depart="146" id="Sflow58.3" from="in5" to="out8"/>
<trip type="noVar" depart="146" id="Sflow68.3" from="in6" to="out8"/>
<trip type="noVar" depart="146" id="Sflow78.3" from="in7" to="out8"/>
<trip type="noVar" depart="158" id="Sflow21.4" from="in2" to="out1"/>
<trip type="noVar" depart="158" id="Sflow31.4" from="in3" to="out1"/>
<trip type="noVar" depart="158" id="Sflow41.4" from="in4" to="out1"/>
<trip type="noVar" depart="158" id="Sflow51.4" from="in5" to="out1"/>
<trip type="noVar" depart="158" id="Sflow61.4" from="in6" to="out1"/>
<trip type="noVar" depart="158" id="Sflow71.4" from="in7" to="out1"/>
<trip type="noVar" depart="158" id="Sflow81.4" from="in8" to="out1"/>
<trip type="noVar" depart="162" id="Sflow12.4" from="in1" to="out2"/>
<trip type="noVar" depart="162" id="Sflow32.4" from="in3" to="out2"/>
<trip type="noVar" depart="162" id="Sflow42.4" from="in4" to="out2"/>
<trip type="noVar" depart="162" id="Sflow52.4" from="in5" to="out2"/>
<trip type="noVar" depart="162" id="Sflow62.4" from="in6" to="out2"/>
<trip type="noVar" depart="162" id="Sflow72.4" from="in7" to="out2"/>
<trip type="noVar" depart="162" id="Sflow82.4" from="in8" to="out2"/>
<trip type="noVar" depart="166" id="Sflow13.4" from="in1" to="out3"/>
<trip type="noVar" depart="166" id="Sflow23.4" from="in2" to="out3"/>
<trip type="noVar" depart="166" id="Sflow43.4" from="in4" to="out3"/>
<trip type="noVar" depart="166" id="Sflow53.4" from="in5" to="out3"/>
<trip type="noVar" depart="166" id="Sflow63.4" from="in6" to="out3"/>
<trip type="noVar" depart="166" id="Sflow73.4" from="in7" to="out3"/>
<trip type="noVar" depart="166" id="Sflow83.4" from="in8" to="out3"/>
<trip type="noVar" depart="170" id="Sflow14.4" from="in1" to="out4"/>
<trip type="noVar" depart="170" id="Sflow24.4" from="in2" to="out4"/>
<trip type="noVar" depart="170" id="Sflow34.4" from="in3" to="out4"/>
<trip type="noVar" depart="170" id="Sflow54.4" from="in5" to="out4"/>
<trip type="noVar" depart="170" id="Sflow64.4" from="in6" to="out4"/>
<trip type="noVar" depart="170" id="Sflow74.4" from="in7" to="out4"/>
<trip type="noVar" depart="170" id="Sflow84.4" from="in8" to="out4"/>
<trip type="noVar" depart="174" id="Sflow15.4" from="in1" to="out5"/>
<trip type="noVar" depart="174" id="Sflow25.4" from="in2" to="out5"/>
<trip type="noVar" depart="174" id="Sflow35.4" from="in3" to="out5"/>
<trip type="noVar" depart="174" id="Sflow45.4" from="in4" to="out5"/>
<trip type="noVar" depart="174" id="Sflow65.4" from="in6" to="out5"/>
<trip type="noVar" depart="174" id="Sflow75.4" from="in7" to="out5"/>
<trip type="noVar" depart="174" id="Sflow85.4" from="in8" to="out5"/>
<trip type="noVar" depart="178" id="Sflow16.4" from="in1" to="out6"/>
<trip type="noVar" depart="178" id="Sflow26.4" from="in2" to="out6"/>
<trip type="noVar" depart="178" id="Sflow36.4" from="in3" to="out6"/>
<trip type="noVar" depart="178" id="Sflow46.4" from="in4" to="out6"/>
<trip type="noVar" depart="178" id="Sflow56.4" from="in5" to="out6"/>
<trip type="noVar" depart="178" id="Sflow76.4" from="in7" to="out6"/>
<trip type="noVar" depart="178" id="Sflow86.4" from="in8" to="out6"/>
<trip type="noVar" depart="182" id="Sflow17.4" from="in1" to="out7"/>
<trip type="noVar" depart="182" id="Sflow27.4" from="in2" to="out7"/>
<trip type="noVar" depart="182" id="Sflow37.4" from="in3" to="out7"/>
<trip type="noVar" depart="182" id="Sflow47.4" from="in4" to="out7"/>
<trip type="noVar" depart="182" id="Sflow57.4" from="in5" to="out7"/>
<trip type="noVar" depart="182" id="Sflow67.4" from="in6" to="out7"/>
<trip type="noVar" depart="182" id="Sflow87.4" from="in8" to="out7"/>
<trip type="noVar" depart="186" id="Sflow18.4" from="in1" to="out8"/>
<trip type="noVar" depart="186" id="Sflow28.4" from="in2" to="out8"/>
<trip type="noVar" depart="186" id="Sflow38.4" from="in3" to="out8"/>
<trip type="noVar" depart="186" id="Sflow48.4" from="in4" to="out8"/>
<trip type="noVar" depart="186" id="Sflow58.4" from="in5" to="out8"/>
<trip type="noVar" depart="186" id="Sflow68.4" from="in6" to="out8"/>
<trip type="noVar" depart="186" id="Sflow78.4" from="in7" to="out8"/>
<trip type="noVar" depart="197" id="Sflow21.5" from="in2" to="out1"/>
<trip type="noVar" depart="197" id="Sflow31.5" from="in3" to="out1"/>
<trip type="noVar" depart="197" id="Sflow41.5" from="in4" to="out1"/>
<trip type="noVar" depart="197" id="Sflow51.5" from="in5" to="out1"/>
<trip type="noVar" depart="197" id="Sflow61.5" from="in6" to="out1"/>
<trip type="noVar" depart="197" id="Sflow71.5" from="in7" to="out1"/>
<trip type="noVar" depart="197" id="Sflow81.5" from="in8" to="out1"/>
<trip type="noVar" depart="201" id="Sflow12.5" from="in1" to="out2"/>
<trip type="noVar" depart="201" id="Sflow32.5" from="in3" to="out2"/>
<trip type="noVar" depart="201" id="Sflow42.5" from="in4" to="out2"/>
<trip type="noVar" depart="201" id="Sflow52.5" from="in5" to="out2"/>
<trip type="noVar" depart="201" id="Sflow62.5" from="in6" to="out2"/>
<trip type="noVar" depart="201" id="Sflow72.5" from="in7" to="out2"/>
<trip type="noVar" depart="201" id="Sflow82.5" from="in8" to="out2"/>
<trip type="noVar" depart="205" id="Sflow13.5" from="in1" to="out3"/>
<trip type="noVar" depart="205" id="Sflow23.5" from="in2" to="out3"/>
<trip type="noVar" depart="205" id="Sflow43.5" from="in4" to="out3"/>
<trip type="noVar" depart="205" id="Sflow53.5" from="in5" to="out3"/>
<trip type="noVar" depart="205" id="Sflow63.5" from="in6" to="out3"/>
<trip type="noVar" depart="205" id="Sflow73.5" from="in7" to="out3"/>
<trip type="noVar" depart="205" id="Sflow83.5" from="in8" to="out3"/>
<trip type="noVar" depart="209" id="Sflow14.5" from="in1" to="out4"/>
<trip type="noVar" depart="209" id="Sflow24.5" from="in2" to="out4"/>
<trip type="noVar" depart="209" id="Sflow34.5" from="in3" to="out4"/>
<trip type="noVar" depart="209" id="Sflow54.5" from="in5" to="out4"/>
<trip type="noVar" depart="209" id="Sflow64.5" from="in6" to="out4"/>
<trip type="noVar" depart="209" id="Sflow74.5" from="in7" to="out4"/>
<trip type="noVar" depart="209" id="Sflow84.5" from="in8" to="out4"/>
<trip type="noVar" depart="213" id="Sflow15.5" from="in1" to="out5"/>
<trip type="noVar" depart="213" id="Sflow25.5" from="in2" to="out5"/>
<trip type="noVar" depart="213" id="Sflow35.5" from="in3" to="out5"/>
<trip type="noVar" depart="213" id="Sflow45.5" from="in4" to="out5"/>
<trip type="noVar" depart="213" id="Sflow65.5" from="in6" to="out5"/>
<trip type="noVar" depart="213" id="Sflow75.5" from="in7" to="out5"/>
<trip type="noVar" depart="213" id="Sflow85.5" from="in8" to="out5"/>
<trip type="noVar" depart="217" id="Sflow16.5" from="in1" to="out6"/>
<trip type="noVar" depart="217" id="Sflow26.5" from="in2" to="out6"/>
<trip type="noVar" depart="217" id="Sflow36.5" from="in3" to="out6"/>
<trip type="noVar" depart="217" id="Sflow46.5" from="in4" to="out6"/>
<trip type="noVar" depart="217" id="Sflow56.5" from="in5" to="out6"/>
<trip type="noVar" depart="217" id="Sflow76.5" from="in7" to="out6"/>
<trip type="noVar" depart="217" id="Sflow86.5" from="in8" to="out6"/>
<trip type="noVar" depart="221" id="Sflow17.5" from="in1" to="out7"/>
<trip type="noVar" depart="221" id="Sflow27.5" from="in2" to="out7"/>
<trip type="noVar" depart="221" id="Sflow37.5" from="in3" to="out7"/>
<trip type="noVar" depart="221" id="Sflow47.5" from="in4" to="out7"/>
<trip type="noVar" depart="221" id="Sflow57.5" from="in5" to="out7"/>
<trip type="noVar" depart="221" id="Sflow67.5" from="in6" to="out7"/>
<trip type="noVar" depart="221" id="Sflow87.5" from="in8" to="out7"/>
<trip type="noVar" depart="225" id="Sflow18.5" from="in1" to="out8"/>
<trip type="noVar" depart="225" id="Sflow28.5" from="in2" to="out8"/>
<trip type="noVar" depart="225" id="Sflow38.5" from="in3" to="out8"/>
<trip type="noVar" depart="225" id="Sflow48.5" from="in4" to="out8"/>
<trip type="noVar" depart="225" id="Sflow58.5" from="in5" to="out8"/>
<trip type="noVar" depart="225" id="Sflow68.5" from="in6" to="out8"/>
<trip type="noVar" depart="225" id="Sflow78.5" from="in7" to="out8"/>
<trip type="noVar" depart="237" id="Sflow21.6" from="in2" to="out1"/>
<trip type="noVar" depart="237" id="Sflow31.6" from="in3" to="out1"/>
<trip type="noVar" depart="237" id="Sflow41.6" from="in4" to="out1"/>
<trip type="noVar" depart="237" id="Sflow51.6" from="in5" to="out1"/>
<trip type="noVar" depart="237" id="Sflow61.6" from="in6" to="out1"/>
<trip type="noVar" depart="237" id="Sflow71.6" from="in7" to="out1"/>
<trip type="noVar" depart="237" id="Sflow81.6" from="in8" to="out1"/>
<trip type="noVar" depart="241" id="Sflow12.6" from="in1" to="out2"/>
<trip type="noVar" depart="241" id="Sflow32.6" from="in3" to="out2"/>
<trip type="noVar" depart="241" id="Sflow42.6" from="in4" to="out2"/>
<trip type="noVar" depart="241" id="Sflow52.6" from="in5" to="out2"/>
<trip type="noVar" depart="241" id="Sflow62.6" from="in6" to="out2"/>
<trip type="noVar" depart="241" id="Sflow72.6" from="in7" to="out2"/>
<trip type="noVar" depart="241" id="Sflow82.6" from="in8" to="out2"/>
<trip type="noVar" depart="245" id="Sflow13.6" from="in1" to="out3"/>
<trip type="noVar" depart="245" id="Sflow23.6" from="in2" to="out3"/>
<trip type="noVar" depart="245" id="Sflow43.6" from="in4" to="out3"/>
<trip type="noVar" depart="245" id="Sflow53.6" from="in5" to="out3"/>
<trip type="noVar" depart="245" id="Sflow63.6" from="in6" to="out3"/>
<trip type="noVar" depart="245" id="Sflow73.6" from="in7" to="out3"/>
<trip type="noVar" depart="245" id="Sflow83.6" from="in8" to="out3"/>
<trip type="noVar" depart="249" id="Sflow14.6" from="in1" to="out4"/>
<trip type="noVar" depart="249" id="Sflow24.6" from="in2" to="out4"/>
<trip type="noVar" depart="249" id="Sflow34.6" from="in3" to="out4"/>
<trip type="noVar" depart="249" id="Sflow54.6" from="in5" to="out4"/>
<trip type="noVar" depart="249" id="Sflow64.6" from="in6" to="out4"/>
<trip type="noVar" depart="249" id="Sflow74.6" from="in7" to="out4"/>
<trip type="noVar" depart="249" id="Sflow84.6" from="in8" to="out4"/>
<trip type="noVar" depart="253" id="Sflow15.6" from="in1" to="out5"/>
<trip type="noVar" depart="253" id="Sflow25.6" from="in2" to="out5"/>
<trip type="noVar" depart="253" id="Sflow35.6" from="in3" to="out5"/>
<trip type="noVar" depart="253" id="Sflow45.6" from="in4" to="out5"/>
<trip type="noVar" depart="253" id="Sflow65.6" from="in6" to="out5"/>
<trip type="noVar" depart="253" id="Sflow75.6" from="in7" to="out5"/>
<trip type="noVar" depart="253" id="Sflow85.6" from="in8" to="out5"/>
<trip type="noVar" depart="257" id="Sflow16.6" from="in1" to="out6"/>
<trip type="noVar" depart="257" id="Sflow26.6" from="in2" to="out6"/>
<trip type="noVar" depart="257" id="Sflow36.6" from="in3" to="out6"/>
<trip type="noVar" depart="257" id="Sflow46.6" from="in4" to="out6"/>
<trip type="noVar" depart="257" id="Sflow56.6" from="in5" to="out6"/>
<trip type="noVar" depart="257" id="Sflow76.6" from="in7" to="out6"/>
<trip type="noVar" depart="257" id="Sflow86.6" from="in8" to="out6"/>
<trip type="noVar" depart="261" id="Sflow17.6" from="in1" to="out7"/>
<trip type="noVar" depart="261" id="Sflow27.6" from="in2" to="out7"/>
<trip type="noVar" depart="261" id="Sflow37.6" from="in3" to="out7"/>
<trip type="noVar" depart="261" id="Sflow47.6" from="in4" to="out7"/>
<trip type="noVar" depart="261" id="Sflow57.6" from="in5" to="out7"/>
<trip type="noVar" depart="261" id="Sflow67.6" from="in6" to="out7"/>
<trip type="noVar" depart="261" id="Sflow87.6" from="in8" to="out7"/>
<trip type="noVar" depart="265" id="Sflow18.6" from="in1" to="out8"/>
<trip type="noVar" depart="265" id="Sflow28.6" from="in2" to="out8"/>
<trip type="noVar" depart="265" id="Sflow38.6" from="in3" to="out8"/>
<trip type="noVar" depart="265" id="Sflow48.6" from="in4" to="out8"/>
<trip type="noVar" depart="265" id="Sflow58.6" from="in5" to="out8"/>
<trip type="noVar" depart="265" id="Sflow68.6" from="in6" to="out8"/>
<trip type="noVar" depart="265" id="Sflow78.6" from="in7" to="out8"/>
<trip type="noVar" depart="276" id="Sflow21.7" from="in2" to="out1"/>
<trip type="noVar" depart="276" id="Sflow31.7" from="in3" to="out1"/>
<trip type="noVar" depart="276" id="Sflow41.7" from="in4" to="out1"/>
<trip type="noVar" depart="276" id="Sflow51.7" from="in5" to="out1"/>
<trip type="noVar" depart="276" id="Sflow61.7" from="in6" to="out1"/>
<trip type="noVar" depart="276" id="Sflow71.7" from="in7" to="out1"/>
<trip type="noVar" depart="276" id="Sflow81.7" from="in8" to="out1"/>
<trip type="noVar" depart="280" id="Sflow12.7" from="in1" to="out2"/>
<trip type="noVar" depart="280" id="Sflow32.7" from="in3" to="out2"/>
<trip type="noVar" depart="280" id="Sflow42.7" from="in4" to="out2"/>
<trip type="noVar" depart="280" id="Sflow52.7" from="in5" to="out2"/>
<trip type="noVar" depart="280" id="Sflow62.7" from="in6" to="out2"/>
<trip type="noVar" depart="280" id="Sflow72.7" from="in7" to="out2"/>
<trip type="noVar" depart="280" id="Sflow82.7" from="in8" to="out2"/>
<trip type="noVar" depart="284" id="Sflow13.7" from="in1" to="out3"/>
<trip type="noVar" depart="284" id="Sflow23.7" from="in2" to="out3"/>
<trip type="noVar" depart="284" id="Sflow43.7" from="in4" to="out3"/>
<trip type="noVar" depart="284" id="Sflow53.7" from="in5" to="out3"/>
<trip type="noVar" depart="284" id="Sflow63.7" from="in6" to="out3"/>
<trip type="noVar" depart="284" id="Sflow73.7" from="in7" to="out3"/>
<trip type="noVar" depart="284" id="Sflow83.7" from="in8" to="out3"/>
<trip type="noVar" depart="288" id="Sflow14.7" from="in1" to="out4"/>
<trip type="noVar" depart="288" id="Sflow24.7" from="in2" to="out4"/>
<trip type="noVar" depart="288" id="Sflow34.7" from="in3" to="out4"/>
<trip type="noVar" depart="288" id="Sflow54.7" from="in5" to="out4"/>
<trip type="noVar" depart="288" id="Sflow64.7" from="in6" to="out4"/>
<trip type="noVar" depart="288" id="Sflow74.7" from="in7" to="out4"/>
<trip type="noVar" depart="288" id="Sflow84.7" from="in8" to="out4"/>
<trip type="noVar" depart="292" id="Sflow15.7" from="in1" to="out5"/>
<trip type="noVar" depart="292" id="Sflow25.7" from="in2" to="out5"/>
<trip type="noVar" depart="292" id="Sflow35.7" from="in3" to="out5"/>
<trip type="noVar" depart="292" id="Sflow45.7" from="in4" to="out5"/>
<trip type="noVar" depart="292" id="Sflow65.7" from="in6" to="out5"/>
<trip type="noVar" depart="292" id="Sflow75.7" from="in7" to="out5"/>
<trip type="noVar" depart="292" id="Sflow85.7" from="in8" to="out5"/>