<?xml version="1.0" encoding="UTF-8"?>

<!-- generated on 2022-06-22 15:47:23 by Eclipse SUMO netedit Version 1.11.0
<configuration xmlns:xsi="http://www.w3.org/2001/XMLSchema-instance" xsi:noNamespaceSchemaLocation="http://sumo.dlr.de/xsd/netconvertConfiguration.xsd">

    <input>
        <sumo-net-file value="/Users/davidneiman/Documents/GitHub.nosync/traffic-routing/surtrac_test/blocks2.net.xml"/>
    </input>

    <output>
        <output-file value="/Users/davidneiman/Documents/GitHub.nosync/traffic-routing/surtrac_test/blocks2lto.net.xml"/>
    </output>

    <processing>
        <geometry.min-radius.fix.railways value="false"/>
        <geometry.max-grade.fix value="false"/>
        <offset.disable-normalization value="true"/>
        <lefthand value="false"/>
    </processing>

    <junctions>
        <no-turnarounds value="true"/>
        <junctions.corner-detail value="5"/>
        <junctions.limit-turn-speed value="5.5"/>
        <rectangular-lane-cut value="false"/>
    </junctions>

    <pedestrian>
        <walkingareas value="false"/>
    </pedestrian>

    <report>
        <aggregate-warnings value="5"/>
    </report>

</configuration>
-->

<net version="1.9" junctionCornerDetail="5" limitTurnSpeed="5.50" xmlns:xsi="http://www.w3.org/2001/XMLSchema-instance" xsi:noNamespaceSchemaLocation="http://sumo.dlr.de/xsd/net_file.xsd">

    <location netOffset="0.00,0.00" convBoundary="-100.00,-100.00,900.00,500.00" origBoundary="-10000000000.00,-10000000000.00,10000000000.00,10000000000.00" projParameter="!"/>

    <edge id=":J10_0" function="internal">
        <lane id=":J10_0_0" index="0" speed="6.51" length="9.03" shape="795.20,10.40 794.85,7.95 793.80,6.20 792.05,5.15 789.60,4.80"/>
        <lane id=":J10_0_1" index="1" speed="7.33" length="11.73" shape="795.20,10.40 794.85,6.55 793.80,3.80 792.05,2.15 789.60,1.60"/>
    </edge>
    <edge id=":J10_2" function="internal">
        <lane id=":J10_2_0" index="0" speed="9.84" length="21.99" shape="798.40,10.40 799.15,3.75 801.40,-1.00 805.15,-3.85 810.40,-4.80"/>
        <lane id=":J10_2_1" index="1" speed="9.26" length="19.35" shape="798.40,10.40 799.15,5.15 801.40,1.40 805.15,-0.85 810.40,-1.60"/>
    </edge>
    <edge id=":J10_4" function="internal">
        <lane id=":J10_4_0" index="0" speed="6.51" length="9.03" shape="810.40,4.80 807.95,5.15 806.20,6.20 805.15,7.95 804.80,10.40"/>
        <lane id=":J10_4_1" index="1" speed="7.33" length="11.73" shape="810.40,4.80 806.55,5.15 803.80,6.20 802.15,7.95 801.60,10.40"/>
    </edge>
    <edge id=":J10_6" function="internal">
        <lane id=":J10_6_0" index="0" speed="13.89" length="20.96" shape="810.40,4.80 789.60,4.80"/>
        <lane id=":J10_6_1" index="1" speed="13.89" length="20.96" shape="810.40,4.80 804.34,4.30 800.00,3.20 795.66,2.10 789.60,1.60"/>
    </edge>
    <edge id=":J10_8" function="internal">
        <lane id=":J10_8_0" index="0" speed="13.89" length="20.96" shape="789.60,-4.80 810.40,-4.80"/>
        <lane id=":J10_8_1" index="1" speed="13.89" length="20.96" shape="789.60,-4.80 795.66,-4.30 800.00,-3.20 804.34,-2.10 810.40,-1.60"/>
    </edge>
    <edge id=":J10_10" function="internal">
        <lane id=":J10_10_0" index="0" speed="9.84" length="12.58" shape="789.60,-1.60 796.25,-0.85 801.00,1.40 801.38,1.90"/>
        <lane id=":J10_10_1" index="1" speed="9.26" length="8.98" shape="789.60,-1.60 794.85,-0.85 798.01,1.04"/>
    </edge>
    <edge id=":J10_12" function="internal">
        <lane id=":J10_12_0" index="0" speed="9.84" length="9.42" shape="801.38,1.90 803.85,5.15 804.80,10.40"/>
    </edge>
    <edge id=":J10_13" function="internal">
        <lane id=":J10_13_0" index="0" speed="9.26" length="10.37" shape="798.01,1.04 798.60,1.40 800.85,5.15 801.60,10.40"/>
    </edge>
    <edge id=":J11_0" function="internal">
        <lane id=":J11_0_0" index="0" speed="6.51" length="9.03" shape="795.20,210.40 794.85,207.95 793.80,206.20 792.05,205.15 789.60,204.80"/>
        <lane id=":J11_0_1" index="1" speed="7.33" length="11.73" shape="795.20,210.40 794.85,206.55 793.80,203.80 792.05,202.15 789.60,201.60"/>
    </edge>
    <edge id=":J11_2" function="internal">
        <lane id=":J11_2_0" index="0" speed="13.89" length="20.96" shape="795.20,210.40 795.20,189.60"/>
        <lane id=":J11_2_1" index="1" speed="13.89" length="20.96" shape="795.20,210.40 795.70,204.34 796.80,200.00 797.90,195.66 798.40,189.60"/>
    </edge>
    <edge id=":J11_4" function="internal">
        <lane id=":J11_4_0" index="0" speed="13.89" length="20.96" shape="804.80,189.60 804.80,210.40"/>
        <lane id=":J11_4_1" index="1" speed="13.89" length="20.96" shape="804.80,189.60 804.30,195.66 803.20,200.00 802.10,204.34 801.60,210.40"/>
    </edge>
    <edge id=":J11_6" function="internal">
        <lane id=":J11_6_0" index="0" speed="9.84" length="12.58" shape="801.60,189.60 800.85,196.25 798.60,201.00 798.10,201.38"/>
        <lane id=":J11_6_1" index="1" speed="9.26" length="8.98" shape="801.60,189.60 800.85,194.85 798.96,198.01"/>
    </edge>
    <edge id=":J11_12" function="internal">
        <lane id=":J11_12_0" index="0" speed="9.84" length="9.42" shape="798.10,201.38 794.85,203.85 789.60,204.80"/>
    </edge>
    <edge id=":J11_13" function="internal">
        <lane id=":J11_13_0" index="0" speed="9.26" length="10.37" shape="798.96,198.01 798.60,198.60 794.85,200.85 789.60,201.60"/>
    </edge>
    <edge id=":J11_8" function="internal">
        <lane id=":J11_8_0" index="0" speed="6.51" length="9.03" shape="789.60,195.20 792.05,194.85 793.80,193.80 794.85,192.05 795.20,189.60"/>
        <lane id=":J11_8_1" index="1" speed="7.33" length="11.73" shape="789.60,195.20 793.45,194.85 796.20,193.80 797.85,192.05 798.40,189.60"/>
    </edge>
    <edge id=":J11_10" function="internal">
        <lane id=":J11_10_0" index="0" speed="9.84" length="21.99" shape="789.60,198.40 796.25,199.15 801.00,201.40 803.85,205.15 804.80,210.40"/>
        <lane id=":J11_10_1" index="1" speed="9.26" length="19.35" shape="789.60,198.40 794.85,199.15 798.60,201.40 800.85,205.15 801.60,210.40"/>
    </edge>
    <edge id=":J12_0" function="internal">
        <lane id=":J12_0_0" index="0" speed="6.51" length="9.03" shape="595.20,210.40 594.85,207.95 593.80,206.20 592.05,205.15 589.60,204.80"/>
        <lane id=":J12_0_1" index="1" speed="7.33" length="11.73" shape="595.20,210.40 594.85,206.55 593.80,203.80 592.05,202.15 589.60,201.60"/>
    </edge>
    <edge id=":J12_2" function="internal">
        <lane id=":J12_2_0" index="0" speed="13.89" length="20.96" shape="595.20,210.40 595.20,189.60"/>
        <lane id=":J12_2_1" index="1" speed="13.89" length="20.96" shape="595.20,210.40 595.70,204.34 596.80,200.00 597.90,195.66 598.40,189.60"/>
    </edge>
    <edge id=":J12_4" function="internal">
        <lane id=":J12_4_0" index="0" speed="9.84" length="12.58" shape="598.40,210.40 599.15,203.75 601.40,199.00 601.90,198.62"/>
        <lane id=":J12_4_1" index="1" speed="9.26" length="8.98" shape="598.40,210.40 599.15,205.15 601.04,201.99"/>
    </edge>
    <edge id=":J12_24" function="internal">
        <lane id=":J12_24_0" index="0" speed="9.84" length="9.42" shape="601.90,198.62 605.15,196.15 610.40,195.20"/>
    </edge>
    <edge id=":J12_25" function="internal">
        <lane id=":J12_25_0" index="0" speed="9.26" length="10.37" shape="601.04,201.99 601.40,201.40 605.15,199.15 610.40,198.40"/>
    </edge>
    <edge id=":J12_6" function="internal">
        <lane id=":J12_6_0" index="0" speed="6.51" length="9.03" shape="610.40,204.80 607.95,205.15 606.20,206.20 605.15,207.95 604.80,210.40"/>
        <lane id=":J12_6_1" index="1" speed="7.33" length="11.73" shape="610.40,204.80 606.55,205.15 603.80,206.20 602.15,207.95 601.60,210.40"/>
    </edge>
    <edge id=":J12_8" function="internal">
        <lane id=":J12_8_0" index="0" speed="13.89" length="20.96" shape="610.40,204.80 589.60,204.80"/>
        <lane id=":J12_8_1" index="1" speed="13.89" length="20.96" shape="610.40,204.80 604.34,204.30 600.00,203.20 595.66,202.10 589.60,201.60"/>
    </edge>
    <edge id=":J12_10" function="internal">
        <lane id=":J12_10_0" index="0" speed="9.84" length="12.58" shape="610.40,201.60 603.75,200.85 599.00,198.60 598.62,198.10"/>
        <lane id=":J12_10_1" index="1" speed="9.26" length="8.98" shape="610.40,201.60 605.15,200.85 601.99,198.96"/>
    </edge>
    <edge id=":J12_26" function="internal">
        <lane id=":J12_26_0" index="0" speed="9.84" length="9.42" shape="598.62,198.10 596.15,194.85 595.20,189.60"/>
    </edge>
    <edge id=":J12_27" function="internal">
        <lane id=":J12_27_0" index="0" speed="9.26" length="10.37" shape="601.99,198.96 601.40,198.60 599.15,194.85 598.40,189.60"/>
    </edge>
    <edge id=":J12_12" function="internal">
        <lane id=":J12_12_0" index="0" speed="6.51" length="9.03" shape="604.80,189.60 605.15,192.05 606.20,193.80 607.95,194.85 610.40,195.20"/>
        <lane id=":J12_12_1" index="1" speed="7.33" length="11.73" shape="604.80,189.60 605.15,193.45 606.20,196.20 607.95,197.85 610.40,198.40"/>
    </edge>
    <edge id=":J12_14" function="internal">
        <lane id=":J12_14_0" index="0" speed="13.89" length="20.96" shape="604.80,189.60 604.80,210.40"/>
        <lane id=":J12_14_1" index="1" speed="13.89" length="20.96" shape="604.80,189.60 604.30,195.66 603.20,200.00 602.10,204.34 601.60,210.40"/>
    </edge>
    <edge id=":J12_16" function="internal">
        <lane id=":J12_16_0" index="0" speed="9.84" length="12.58" shape="601.60,189.60 600.85,196.25 598.60,201.00 598.10,201.38"/>
        <lane id=":J12_16_1" index="1" speed="9.26" length="8.98" shape="601.60,189.60 600.85,194.85 598.96,198.01"/>
    </edge>
    <edge id=":J12_28" function="internal">
        <lane id=":J12_28_0" index="0" speed="9.84" length="9.42" shape="598.10,201.38 594.85,203.85 589.60,204.80"/>
    </edge>
    <edge id=":J12_29" function="internal">
        <lane id=":J12_29_0" index="0" speed="9.26" length="10.37" shape="598.96,198.01 598.60,198.60 594.85,200.85 589.60,201.60"/>
    </edge>
    <edge id=":J12_18" function="internal">
        <lane id=":J12_18_0" index="0" speed="6.51" length="9.03" shape="589.60,195.20 592.05,194.85 593.80,193.80 594.85,192.05 595.20,189.60"/>
        <lane id=":J12_18_1" index="1" speed="7.33" length="11.73" shape="589.60,195.20 593.45,194.85 596.20,193.80 597.85,192.05 598.40,189.60"/>
    </edge>
    <edge id=":J12_20" function="internal">
        <lane id=":J12_20_0" index="0" speed="13.89" length="20.96" shape="589.60,195.20 610.40,195.20"/>
        <lane id=":J12_20_1" index="1" speed="13.89" length="20.96" shape="589.60,195.20 595.66,195.70 600.00,196.80 604.34,197.90 610.40,198.40"/>
    </edge>
    <edge id=":J12_22" function="internal">
        <lane id=":J12_22_0" index="0" speed="9.84" length="12.58" shape="589.60,198.40 596.25,199.15 601.00,201.40 601.38,201.90"/>
        <lane id=":J12_22_1" index="1" speed="9.26" length="8.98" shape="589.60,198.40 594.85,199.15 598.01,201.04"/>
    </edge>
    <edge id=":J12_30" function="internal">
        <lane id=":J12_30_0" index="0" speed="9.84" length="9.42" shape="601.38,201.90 603.85,205.15 604.80,210.40"/>
    </edge>
    <edge id=":J12_31" function="internal">
        <lane id=":J12_31_0" index="0" speed="9.26" length="10.37" shape="598.01,201.04 598.60,201.40 600.85,205.15 601.60,210.40"/>
    </edge>
    <edge id=":J13_0" function="internal">
        <lane id=":J13_0_0" index="0" speed="6.51" length="9.03" shape="395.20,210.40 394.85,207.95 393.80,206.20 392.05,205.15 389.60,204.80"/>
        <lane id=":J13_0_1" index="1" speed="7.33" length="11.73" shape="395.20,210.40 394.85,206.55 393.80,203.80 392.05,202.15 389.60,201.60"/>
    </edge>
    <edge id=":J13_2" function="internal">
        <lane id=":J13_2_0" index="0" speed="13.89" length="20.96" shape="395.20,210.40 395.20,189.60"/>
        <lane id=":J13_2_1" index="1" speed="13.89" length="20.96" shape="395.20,210.40 395.70,204.34 396.80,200.00 397.90,195.66 398.40,189.60"/>
    </edge>
    <edge id=":J13_4" function="internal">
        <lane id=":J13_4_0" index="0" speed="9.84" length="12.58" shape="398.40,210.40 399.15,203.75 401.40,199.00 401.90,198.62"/>
        <lane id=":J13_4_1" index="1" speed="9.26" length="8.98" shape="398.40,210.40 399.15,205.15 401.04,201.99"/>
    </edge>
    <edge id=":J13_24" function="internal">
        <lane id=":J13_24_0" index="0" speed="9.84" length="9.42" shape="401.90,198.62 405.15,196.15 410.40,195.20"/>
    </edge>
    <edge id=":J13_25" function="internal">
        <lane id=":J13_25_0" index="0" speed="9.26" length="10.37" shape="401.04,201.99 401.40,201.40 405.15,199.15 410.40,198.40"/>
    </edge>
    <edge id=":J13_6" function="internal">
        <lane id=":J13_6_0" index="0" speed="6.51" length="9.03" shape="410.40,204.80 407.95,205.15 406.20,206.20 405.15,207.95 404.80,210.40"/>
        <lane id=":J13_6_1" index="1" speed="7.33" length="11.73" shape="410.40,204.80 406.55,205.15 403.80,206.20 402.15,207.95 401.60,210.40"/>
    </edge>
    <edge id=":J13_8" function="internal">
        <lane id=":J13_8_0" index="0" speed="13.89" length="20.96" shape="410.40,204.80 389.60,204.80"/>
        <lane id=":J13_8_1" index="1" speed="13.89" length="20.96" shape="410.40,204.80 404.34,204.30 400.00,203.20 395.66,202.10 389.60,201.60"/>
    </edge>
    <edge id=":J13_10" function="internal">
        <lane id=":J13_10_0" index="0" speed="9.84" length="12.58" shape="410.40,201.60 403.75,200.85 399.00,198.60 398.62,198.10"/>
        <lane id=":J13_10_1" index="1" speed="9.26" length="8.98" shape="410.40,201.60 405.15,200.85 401.99,198.96"/>
    </edge>
    <edge id=":J13_26" function="internal">
        <lane id=":J13_26_0" index="0" speed="9.84" length="9.42" shape="398.62,198.10 396.15,194.85 395.20,189.60"/>
    </edge>
    <edge id=":J13_27" function="internal">
        <lane id=":J13_27_0" index="0" speed="9.26" length="10.37" shape="401.99,198.96 401.40,198.60 399.15,194.85 398.40,189.60"/>
    </edge>
    <edge id=":J13_12" function="internal">
        <lane id=":J13_12_0" index="0" speed="6.51" length="9.03" shape="404.80,189.60 405.15,192.05 406.20,193.80 407.95,194.85 410.40,195.20"/>
        <lane id=":J13_12_1" index="1" speed="7.33" length="11.73" shape="404.80,189.60 405.15,193.45 406.20,196.20 407.95,197.85 410.40,198.40"/>
    </edge>
    <edge id=":J13_14" function="internal">
        <lane id=":J13_14_0" index="0" speed="13.89" length="20.96" shape="404.80,189.60 404.80,210.40"/>
        <lane id=":J13_14_1" index="1" speed="13.89" length="20.96" shape="404.80,189.60 404.30,195.66 403.20,200.00 402.10,204.34 401.60,210.40"/>
    </edge>
    <edge id=":J13_16" function="internal">
        <lane id=":J13_16_0" index="0" speed="9.84" length="12.58" shape="401.60,189.60 400.85,196.25 398.60,201.00 398.10,201.38"/>
        <lane id=":J13_16_1" index="1" speed="9.26" length="8.98" shape="401.60,189.60 400.85,194.85 398.96,198.01"/>
    </edge>
    <edge id=":J13_28" function="internal">
        <lane id=":J13_28_0" index="0" speed="9.84" length="9.42" shape="398.10,201.38 394.85,203.85 389.60,204.80"/>
    </edge>
    <edge id=":J13_29" function="internal">
        <lane id=":J13_29_0" index="0" speed="9.26" length="10.37" shape="398.96,198.01 398.60,198.60 394.85,200.85 389.60,201.60"/>
    </edge>
    <edge id=":J13_18" function="internal">
        <lane id=":J13_18_0" index="0" speed="6.51" length="9.03" shape="389.60,195.20 392.05,194.85 393.80,193.80 394.85,192.05 395.20,189.60"/>
        <lane id=":J13_18_1" index="1" speed="7.33" length="11.73" shape="389.60,195.20 393.45,194.85 396.20,193.80 397.85,192.05 398.40,189.60"/>
    </edge>
    <edge id=":J13_20" function="internal">
        <lane id=":J13_20_0" index="0" speed="13.89" length="20.96" shape="389.60,195.20 410.40,195.20"/>
        <lane id=":J13_20_1" index="1" speed="13.89" length="20.96" shape="389.60,195.20 395.66,195.70 400.00,196.80 404.34,197.90 410.40,198.40"/>
    </edge>
    <edge id=":J13_22" function="internal">
        <lane id=":J13_22_0" index="0" speed="9.84" length="12.58" shape="389.60,198.40 396.25,199.15 401.00,201.40 401.38,201.90"/>
        <lane id=":J13_22_1" index="1" speed="9.26" length="8.98" shape="389.60,198.40 394.85,199.15 398.01,201.04"/>
    </edge>
    <edge id=":J13_30" function="internal">
        <lane id=":J13_30_0" index="0" speed="9.84" length="9.42" shape="401.38,201.90 403.85,205.15 404.80,210.40"/>
    </edge>
    <edge id=":J13_31" function="internal">
        <lane id=":J13_31_0" index="0" speed="9.26" length="10.37" shape="398.01,201.04 398.60,201.40 400.85,205.15 401.60,210.40"/>
    </edge>
    <edge id=":J14_0" function="internal">
        <lane id=":J14_0_0" index="0" speed="6.51" length="9.03" shape="195.20,210.40 194.85,207.95 193.80,206.20 192.05,205.15 189.60,204.80"/>
        <lane id=":J14_0_1" index="1" speed="7.33" length="11.73" shape="195.20,210.40 194.85,206.55 193.80,203.80 192.05,202.15 189.60,201.60"/>
    </edge>
    <edge id=":J14_2" function="internal">
        <lane id=":J14_2_0" index="0" speed="13.89" length="20.96" shape="195.20,210.40 195.20,189.60"/>
        <lane id=":J14_2_1" index="1" speed="13.89" length="20.96" shape="195.20,210.40 195.70,204.34 196.80,200.00 197.90,195.66 198.40,189.60"/>
    </edge>
    <edge id=":J14_4" function="internal">
        <lane id=":J14_4_0" index="0" speed="9.84" length="12.58" shape="198.40,210.40 199.15,203.75 201.40,199.00 201.90,198.62"/>
        <lane id=":J14_4_1" index="1" speed="9.26" length="8.98" shape="198.40,210.40 199.15,205.15 201.04,201.99"/>
    </edge>
    <edge id=":J14_24" function="internal">
        <lane id=":J14_24_0" index="0" speed="9.84" length="9.42" shape="201.90,198.62 205.15,196.15 210.40,195.20"/>
    </edge>
    <edge id=":J14_25" function="internal">
        <lane id=":J14_25_0" index="0" speed="9.26" length="10.37" shape="201.04,201.99 201.40,201.40 205.15,199.15 210.40,198.40"/>
    </edge>
    <edge id=":J14_6" function="internal">
        <lane id=":J14_6_0" index="0" speed="6.51" length="9.03" shape="210.40,204.80 207.95,205.15 206.20,206.20 205.15,207.95 204.80,210.40"/>
        <lane id=":J14_6_1" index="1" speed="7.33" length="11.73" shape="210.40,204.80 206.55,205.15 203.80,206.20 202.15,207.95 201.60,210.40"/>
    </edge>
    <edge id=":J14_8" function="internal">
        <lane id=":J14_8_0" index="0" speed="13.89" length="20.96" shape="210.40,204.80 189.60,204.80"/>
        <lane id=":J14_8_1" index="1" speed="13.89" length="20.96" shape="210.40,204.80 204.34,204.30 200.00,203.20 195.66,202.10 189.60,201.60"/>
    </edge>
    <edge id=":J14_10" function="internal">
        <lane id=":J14_10_0" index="0" speed="9.84" length="12.58" shape="210.40,201.60 203.75,200.85 199.00,198.60 198.62,198.10"/>
        <lane id=":J14_10_1" index="1" speed="9.26" length="8.98" shape="210.40,201.60 205.15,200.85 201.99,198.96"/>
    </edge>
    <edge id=":J14_26" function="internal">
        <lane id=":J14_26_0" index="0" speed="9.84" length="9.42" shape="198.62,198.10 196.15,194.85 195.20,189.60"/>
    </edge>
    <edge id=":J14_27" function="internal">
        <lane id=":J14_27_0" index="0" speed="9.26" length="10.37" shape="201.99,198.96 201.40,198.60 199.15,194.85 198.40,189.60"/>
    </edge>
    <edge id=":J14_12" function="internal">
        <lane id=":J14_12_0" index="0" speed="6.51" length="9.03" shape="204.80,189.60 205.15,192.05 206.20,193.80 207.95,194.85 210.40,195.20"/>
        <lane id=":J14_12_1" index="1" speed="7.33" length="11.73" shape="204.80,189.60 205.15,193.45 206.20,196.20 207.95,197.85 210.40,198.40"/>
    </edge>
    <edge id=":J14_14" function="internal">
        <lane id=":J14_14_0" index="0" speed="13.89" length="20.96" shape="204.80,189.60 204.80,210.40"/>
        <lane id=":J14_14_1" index="1" speed="13.89" length="20.96" shape="204.80,189.60 204.30,195.66 203.20,200.00 202.10,204.34 201.60,210.40"/>
    </edge>
    <edge id=":J14_16" function="internal">
        <lane id=":J14_16_0" index="0" speed="9.84" length="12.58" shape="201.60,189.60 200.85,196.25 198.60,201.00 198.10,201.38"/>
        <lane id=":J14_16_1" index="1" speed="9.26" length="8.98" shape="201.60,189.60 200.85,194.85 198.96,198.01"/>
    </edge>
    <edge id=":J14_28" function="internal">
        <lane id=":J14_28_0" index="0" speed="9.84" length="9.42" shape="198.10,201.38 194.85,203.85 189.60,204.80"/>
    </edge>
    <edge id=":J14_29" function="internal">
        <lane id=":J14_29_0" index="0" speed="9.26" length="10.37" shape="198.96,198.01 198.60,198.60 194.85,200.85 189.60,201.60"/>
    </edge>
    <edge id=":J14_18" function="internal">
        <lane id=":J14_18_0" index="0" speed="6.51" length="9.03" shape="189.60,195.20 192.05,194.85 193.80,193.80 194.85,192.05 195.20,189.60"/>
        <lane id=":J14_18_1" index="1" speed="7.33" length="11.73" shape="189.60,195.20 193.45,194.85 196.20,193.80 197.85,192.05 198.40,189.60"/>
    </edge>
    <edge id=":J14_20" function="internal">
        <lane id=":J14_20_0" index="0" speed="13.89" length="20.96" shape="189.60,195.20 210.40,195.20"/>
        <lane id=":J14_20_1" index="1" speed="13.89" length="20.96" shape="189.60,195.20 195.66,195.70 200.00,196.80 204.34,197.90 210.40,198.40"/>
    </edge>
    <edge id=":J14_22" function="internal">
        <lane id=":J14_22_0" index="0" speed="9.84" length="12.58" shape="189.60,198.40 196.25,199.15 201.00,201.40 201.38,201.90"/>
        <lane id=":J14_22_1" index="1" speed="9.26" length="8.98" shape="189.60,198.40 194.85,199.15 198.01,201.04"/>
    </edge>
    <edge id=":J14_30" function="internal">
        <lane id=":J14_30_0" index="0" speed="9.84" length="9.42" shape="201.38,201.90 203.85,205.15 204.80,210.40"/>
    </edge>
    <edge id=":J14_31" function="internal">
        <lane id=":J14_31_0" index="0" speed="9.26" length="10.37" shape="198.01,201.04 198.60,201.40 200.85,205.15 201.60,210.40"/>
    </edge>
    <edge id=":J15_0" function="internal">
        <lane id=":J15_0_0" index="0" speed="13.89" length="20.96" shape="-4.80,210.40 -4.80,189.60"/>
        <lane id=":J15_0_1" index="1" speed="13.89" length="20.96" shape="-4.80,210.40 -4.30,204.34 -3.20,200.00 -2.10,195.66 -1.60,189.60"/>
    </edge>
    <edge id=":J15_2" function="internal">
        <lane id=":J15_2_0" index="0" speed="9.26" length="8.98" shape="-1.60,210.40 -0.85,205.15 1.04,201.99"/>
    </edge>
    <edge id=":J15_10" function="internal">
        <lane id=":J15_10_0" index="0" speed="9.26" length="10.37" shape="1.04,201.99 1.40,201.40 5.15,199.15 10.40,198.40"/>
    </edge>
    <edge id=":J15_3" function="internal">
        <lane id=":J15_3_0" index="0" speed="6.51" length="9.03" shape="10.40,204.80 7.95,205.15 6.20,206.20 5.15,207.95 4.80,210.40"/>
        <lane id=":J15_3_1" index="1" speed="7.33" length="11.73" shape="10.40,204.80 6.55,205.15 3.80,206.20 2.15,207.95 1.60,210.40"/>
    </edge>
    <edge id=":J15_5" function="internal">
        <lane id=":J15_5_0" index="0" speed="9.84" length="21.99" shape="10.40,201.60 3.75,200.85 -1.00,198.60 -3.85,194.85 -4.80,189.60"/>
        <lane id=":J15_5_1" index="1" speed="9.26" length="19.35" shape="10.40,201.60 5.15,200.85 1.40,198.60 -0.85,194.85 -1.60,189.60"/>
    </edge>
    <edge id=":J15_7" function="internal">
        <lane id=":J15_7_0" index="0" speed="6.51" length="9.03" shape="4.80,189.60 5.15,192.05 6.20,193.80 7.95,194.85 10.40,195.20"/>
    </edge>
    <edge id=":J15_8" function="internal">
        <lane id=":J15_8_0" index="0" speed="13.89" length="20.96" shape="4.80,189.60 4.80,210.40"/>
        <lane id=":J15_8_1" index="1" speed="13.89" length="20.96" shape="4.80,189.60 4.30,195.66 3.20,200.00 2.10,204.34 1.60,210.40"/>
    </edge>
    <edge id=":J16_0" function="internal">
        <lane id=":J16_0_0" index="0" speed="13.89" length="20.96" shape="10.40,404.80 -10.40,404.80"/>
        <lane id=":J16_0_1" index="1" speed="13.89" length="20.96" shape="10.40,404.80 4.34,404.30 -0.00,403.20 -4.34,402.10 -10.40,401.60"/>
    </edge>
    <edge id=":J16_2" function="internal">
        <lane id=":J16_2_0" index="0" speed="9.84" length="12.58" shape="10.40,401.60 3.75,400.85 -1.00,398.60 -1.38,398.10"/>
        <lane id=":J16_2_1" index="1" speed="9.26" length="8.98" shape="10.40,401.60 5.15,400.85 1.99,398.96"/>
    </edge>
    <edge id=":J16_11" function="internal">
        <lane id=":J16_11_0" index="0" speed="9.84" length="9.42" shape="-1.38,398.10 -3.85,394.85 -4.80,389.60"/>
    </edge>
    <edge id=":J16_12" function="internal">
        <lane id=":J16_12_0" index="0" speed="9.26" length="10.37" shape="1.99,398.96 1.40,398.60 -0.85,394.85 -1.60,389.60"/>
    </edge>
    <edge id=":J16_4" function="internal">
        <lane id=":J16_4_0" index="0" speed="6.51" length="9.03" shape="4.80,389.60 5.15,392.05 6.20,393.80 7.95,394.85 10.40,395.20"/>
        <lane id=":J16_4_1" index="1" speed="7.33" length="11.73" shape="4.80,389.60 5.15,393.45 6.20,396.20 7.95,397.85 10.40,398.40"/>
    </edge>
    <edge id=":J16_6" function="internal">
        <lane id=":J16_6_0" index="0" speed="9.84" length="21.99" shape="1.60,389.60 0.85,396.25 -1.40,401.00 -5.15,403.85 -10.40,404.80"/>
        <lane id=":J16_6_1" index="1" speed="9.26" length="19.35" shape="1.60,389.60 0.85,394.85 -1.40,398.60 -5.15,400.85 -10.40,401.60"/>
    </edge>
    <edge id=":J16_8" function="internal">
        <lane id=":J16_8_0" index="0" speed="6.51" length="9.03" shape="-10.40,395.20 -7.95,394.85 -6.20,393.80 -5.15,392.05 -4.80,389.60"/>
    </edge>
    <edge id=":J16_9" function="internal">
        <lane id=":J16_9_0" index="0" speed="13.89" length="20.96" shape="-10.40,395.20 10.40,395.20"/>
        <lane id=":J16_9_1" index="1" speed="13.89" length="20.96" shape="-10.40,395.20 -4.34,395.70 -0.00,396.80 4.34,397.90 10.40,398.40"/>
    </edge>
    <edge id=":J17_0" function="internal">
        <lane id=":J17_0_0" index="0" speed="6.51" length="9.03" shape="195.20,410.40 194.85,407.95 193.80,406.20 192.05,405.15 189.60,404.80"/>
        <lane id=":J17_0_1" index="1" speed="7.33" length="11.73" shape="195.20,410.40 194.85,406.55 193.80,403.80 192.05,402.15 189.60,401.60"/>
    </edge>
    <edge id=":J17_2" function="internal">
        <lane id=":J17_2_0" index="0" speed="13.89" length="20.96" shape="195.20,410.40 195.20,389.60"/>
        <lane id=":J17_2_1" index="1" speed="13.89" length="20.96" shape="195.20,410.40 195.70,404.34 196.80,400.00 197.90,395.66 198.40,389.60"/>
    </edge>
    <edge id=":J17_4" function="internal">
        <lane id=":J17_4_0" index="0" speed="9.84" length="12.58" shape="198.40,410.40 199.15,403.75 201.40,399.00 201.90,398.62"/>
        <lane id=":J17_4_1" index="1" speed="9.26" length="8.98" shape="198.40,410.40 199.15,405.15 201.04,401.99"/>
    </edge>
    <edge id=":J17_24" function="internal">
        <lane id=":J17_24_0" index="0" speed="9.84" length="9.42" shape="201.90,398.62 205.15,396.15 210.40,395.20"/>
    </edge>
    <edge id=":J17_25" function="internal">
        <lane id=":J17_25_0" index="0" speed="9.26" length="10.37" shape="201.04,401.99 201.40,401.40 205.15,399.15 210.40,398.40"/>
    </edge>
    <edge id=":J17_6" function="internal">
        <lane id=":J17_6_0" index="0" speed="6.51" length="9.03" shape="210.40,404.80 207.95,405.15 206.20,406.20 205.15,407.95 204.80,410.40"/>
        <lane id=":J17_6_1" index="1" speed="7.33" length="11.73" shape="210.40,404.80 206.55,405.15 203.80,406.20 202.15,407.95 201.60,410.40"/>
    </edge>
    <edge id=":J17_8" function="internal">
        <lane id=":J17_8_0" index="0" speed="13.89" length="20.96" shape="210.40,404.80 189.60,404.80"/>
        <lane id=":J17_8_1" index="1" speed="13.89" length="20.96" shape="210.40,404.80 204.34,404.30 200.00,403.20 195.66,402.10 189.60,401.60"/>
    </edge>
    <edge id=":J17_10" function="internal">
        <lane id=":J17_10_0" index="0" speed="9.84" length="12.58" shape="210.40,401.60 203.75,400.85 199.00,398.60 198.62,398.10"/>
        <lane id=":J17_10_1" index="1" speed="9.26" length="8.98" shape="210.40,401.60 205.15,400.85 201.99,398.96"/>
    </edge>
    <edge id=":J17_26" function="internal">
        <lane id=":J17_26_0" index="0" speed="9.84" length="9.42" shape="198.62,398.10 196.15,394.85 195.20,389.60"/>
    </edge>
    <edge id=":J17_27" function="internal">
        <lane id=":J17_27_0" index="0" speed="9.26" length="10.37" shape="201.99,398.96 201.40,398.60 199.15,394.85 198.40,389.60"/>
    </edge>
    <edge id=":J17_12" function="internal">
        <lane id=":J17_12_0" index="0" speed="6.51" length="9.03" shape="204.80,389.60 205.15,392.05 206.20,393.80 207.95,394.85 210.40,395.20"/>
        <lane id=":J17_12_1" index="1" speed="7.33" length="11.73" shape="204.80,389.60 205.15,393.45 206.20,396.20 207.95,397.85 210.40,398.40"/>
    </edge>
    <edge id=":J17_14" function="internal">
        <lane id=":J17_14_0" index="0" speed="13.89" length="20.96" shape="204.80,389.60 204.80,410.40"/>
        <lane id=":J17_14_1" index="1" speed="13.89" length="20.96" shape="204.80,389.60 204.30,395.66 203.20,400.00 202.10,404.34 201.60,410.40"/>
    </edge>
    <edge id=":J17_16" function="internal">
        <lane id=":J17_16_0" index="0" speed="9.84" length="12.58" shape="201.60,389.60 200.85,396.25 198.60,401.00 198.10,401.38"/>
        <lane id=":J17_16_1" index="1" speed="9.26" length="8.98" shape="201.60,389.60 200.85,394.85 198.96,398.01"/>
    </edge>
    <edge id=":J17_28" function="internal">
        <lane id=":J17_28_0" index="0" speed="9.84" length="9.42" shape="198.10,401.38 194.85,403.85 189.60,404.80"/>
    </edge>
    <edge id=":J17_29" function="internal">
        <lane id=":J17_29_0" index="0" speed="9.26" length="10.37" shape="198.96,398.01 198.60,398.60 194.85,400.85 189.60,401.60"/>
    </edge>
    <edge id=":J17_18" function="internal">