<?xml version="1.0" encoding="UTF-8"?>
<routes xmlns:xsi="http://www.w3.org/2001/XMLSchema-instance" xsi:noNamespaceSchemaLocation="http://sumo.dlr.de/xsd/routes_file.xsd">

<vType id="noVar" speedFactor="1.0" speedDev="0.0"/>
<route id="route_SflowLR.0" edges="Lin Rout" />
<vehicle type="noVar" depart="0" id="SflowLR.0" route="route_SflowLR.0" />
<route id="route_SflowLU.0" edges="Lin Uout" />
<vehicle type="noVar" depart="0" id="SflowLU.0" route="route_SflowLU.0" />
<route id="route_SflowLD.0" edges="Lin Dout" />
<vehicle type="noVar" depart="0" id="SflowLD.0" route="route_SflowLD.0" />
<route id="route_SflowRL.0" edges="Rin Lout" />
<vehicle type="noVar" depart="0" id="SflowRL.0" route="route_SflowRL.0" />
<route id="route_SflowRU.0" edges="Rin Uout" />
<vehicle type="noVar" depart="0" id="SflowRU.0" route="route_SflowRU.0" />
<route id="route_SflowRD.0" edges="Rin Dout" />
<vehicle type="noVar" depart="0" id="SflowRD.0" route="route_SflowRD.0" />
<route id="route_SflowUD.0" edges="Uin Dout" />
<vehicle type="noVar" depart="0" id="SflowUD.0" route="route_SflowUD.0" />
<route id="route_SflowUL.0" edges="Uin Lout" />
<vehicle type="noVar" depart="0" id="SflowUL.0" route="route_SflowUL.0" />
<route id="route_SflowUR.0" edges="Uin Rout" />
<vehicle type="noVar" depart="0" id="SflowUR.0" route="route_SflowUR.0" />
<route id="route_SflowDU.0" edges="Din Uout" />
<vehicle type="noVar" depart="0" id="SflowDU.0" route="route_SflowDU.0" />
<route id="route_SflowDL.0" edges="Din Lout" />
<vehicle type="noVar" depart="0" id="SflowDL.0" route="route_SflowDL.0" />
<route id="route_SflowDR.0" edges="Din Rout" />
<vehicle type="noVar" depart="0" id="SflowDR.0" route="route_SflowDR.0" />
<route id="route_SflowLR.1" edges="Lin Rout" />
<vehicle type="noVar" depart="10" id="SflowLR.1" route="route_SflowLR.1" />
<route id="route_SflowRL.1" edges="Rin Lout" />
<vehicle type="noVar" depart="10" id="SflowRL.1" route="route_SflowRL.1" />
<route id="route_SflowUD.1" edges="Uin Dout" />
<vehicle type="noVar" depart="14" id="SflowUD.1" route="route_SflowUD.1" />
<route id="route_SflowDU.1" edges="Din Uout" />
<vehicle type="noVar" depart="14" id="SflowDU.1" route="route_SflowDU.1" />
<route id="route_SflowLR.2" edges="Lin Rout" />
<vehicle type="noVar" depart="21" id="SflowLR.2" route="route_SflowLR.2" />
<route id="route_SflowRL.2" edges="Rin Lout" />
<vehicle type="noVar" depart="21" id="SflowRL.2" route="route_SflowRL.2" />
<route id="route_SflowLU.1" edges="Lin Uout" />
<vehicle type="noVar" depart="21" id="SflowLU.1" route="route_SflowLU.1" />
<route id="route_SflowLD.1" edges="Lin Dout" />
<vehicle type="noVar" depart="21" id="SflowLD.1" route="route_SflowLD.1" />
<route id="route_SflowRU.1" edges="Rin Uout" />
<vehicle type="noVar" depart="21" id="SflowRU.1" route="route_SflowRU.1" />
<route id="route_SflowRD.1" edges="Rin Dout" />
<vehicle type="noVar" depart="21" id="SflowRD.1" route="route_SflowRD.1" />
<route id="route_SflowUD.2" edges="Uin Dout" />
<vehicle type="noVar" depart="28" id="SflowUD.2" route="route_SflowUD.2" />
<route id="route_SflowDU.2" edges="Din Uout" />
<vehicle type="noVar" depart="28" id="SflowDU.2" route="route_SflowDU.2" />
<route id="route_SflowLR.3" edges="Lin Rout" />
<vehicle type="noVar" depart="31" id="SflowLR.3" route="route_SflowLR.3" />
<route id="route_SflowRL.3" edges="Rin Lout" />
<vehicle type="noVar" depart="31" id="SflowRL.3" route="route_SflowRL.3" />
<route id="route_SflowLR.4" edges="Lin Rout" />
<vehicle type="noVar" depart="42" id="SflowLR.4" route="route_SflowLR.4" />
<route id="route_SflowRL.4" edges="Rin Lout" />
<vehicle type="noVar" depart="42" id="SflowRL.4" route="route_SflowRL.4" />
<route id="route_SflowUD.3" edges="Uin Dout" />
<vehicle type="noVar" depart="42" id="SflowUD.3" route="route_SflowUD.3" />
<route id="route_SflowDU.3" edges="Din Uout" />
<vehicle type="noVar" depart="42" id="SflowDU.3" route="route_SflowDU.3" />
<route id="route_SflowLU.2" edges="Lin Uout" />
<vehicle type="noVar" depart="42" id="SflowLU.2" route="route_SflowLU.2" />
<route id="route_SflowLD.2" edges="Lin Dout" />
<vehicle type="noVar" depart="42" id="SflowLD.2" route="route_SflowLD.2" />
<route id="route_SflowRU.2" edges="Rin Uout" />
<vehicle type="noVar" depart="42" id="SflowRU.2" route="route_SflowRU.2" />
<route id="route_SflowRD.2" edges="Rin Dout" />
<vehicle type="noVar" depart="42" id="SflowRD.2" route="route_SflowRD.2" />
<route id="route_SflowUL.1" edges="Uin Lout" />
<vehicle type="noVar" depart="42" id="SflowUL.1" route="route_SflowUL.1" />
<route id="route_SflowUR.1" edges="Uin Rout" />
<vehicle type="noVar" depart="42" id="SflowUR.1" route="route_SflowUR.1" />
<route id="route_SflowDL.1" edges="Din Lout" />
<vehicle type="noVar" depart="42" id="SflowDL.1" route="route_SflowDL.1" />
<route id="route_SflowDR.1" edges="Din Rout" />
<vehicle type="noVar" depart="42" id="SflowDR.1" route="route_SflowDR.1" />
<route id="route_SflowLR.5" edges="Lin Rout" />
<vehicle type="noVar" depart="52" id="SflowLR.5" route="route_SflowLR.5" />
<route id="route_SflowRL.5" edges="Rin Lout" />
<vehicle type="noVar" depart="52" id="SflowRL.5" route="route_SflowRL.5" />
<route id="route_SflowUD.4" edges="Uin Dout" />
<vehicle type="noVar" depart="56" id="SflowUD.4" route="route_SflowUD.4" />
<route id="route_SflowDU.4" edges="Din Uout" />
<vehicle type="noVar" depart="56" id="SflowDU.4" route="route_SflowDU.4" />
<route id="route_SflowLR.6" edges="Lin Rout" />
<vehicle type="noVar" depart="63" id="SflowLR.6" route="route_SflowLR.6" />
<route id="route_SflowRL.6" edges="Rin Lout" />
<vehicle type="noVar" depart="63" id="SflowRL.6" route="route_SflowRL.6" />
<route id="route_SflowLU.3" edges="Lin Uout" />
<vehicle type="noVar" depart="63" id="SflowLU.3" route="route_SflowLU.3" />
<route id="route_SflowLD.3" edges="Lin Dout" />
<vehicle type="noVar" depart="63" id="SflowLD.3" route="route_SflowLD.3" />
<route id="route_SflowRU.3" edges="Rin Uout" />
<vehicle type="noVar" depart="63" id="SflowRU.3" route="route_SflowRU.3" />
<route id="route_SflowRD.3" edges="Rin Dout" />
<vehicle type="noVar" depart="63" id="SflowRD.3" route="route_SflowRD.3" />
<route id="route_SflowUD.5" edges="Uin Dout" />
<vehicle type="noVar" depart="70" id="SflowUD.5" route="route_SflowUD.5" />
<route id="route_SflowDU.5" edges="Din Uout" />
<vehicle type="noVar" depart="70" id="SflowDU.5" route="route_SflowDU.5" />
<route id="route_SflowLR.7" edges="Lin Rout" />
<vehicle type="noVar" depart="73" id="SflowLR.7" route="route_SflowLR.7" />
<route id="route_SflowRL.7" edges="Rin Lout" />
<vehicle type="noVar" depart="73" id="SflowRL.7" route="route_SflowRL.7" />
<route id="route_SflowLR.8" edges="Lin Rout" />
<vehicle type="noVar" depart="84" id="SflowLR.8" route="route_SflowLR.8" />
<route id="route_SflowRL.8" edges="Rin Lout" />
<vehicle type="noVar" depart="84" id="SflowRL.8" route="route_SflowRL.8" />
<route id="route_SflowUD.6" edges="Uin Dout" />
<vehicle type="noVar" depart="84" id="SflowUD.6" route="route_SflowUD.6" />
<route id="route_SflowDU.6" edges="Din Uout" />
<vehicle type="noVar" depart="84" id="SflowDU.6" route="route_SflowDU.6" />
<route id="route_SflowLU.4" edges="Lin Uout" />
<vehicle type="noVar" depart="84" id="SflowLU.4" route="route_SflowLU.4" />
<route id="route_SflowLD.4" edges="Lin Dout" />
<vehicle type="noVar" depart="84" id="SflowLD.4" route="route_SflowLD.4" />
<route id="route_SflowRU.4" edges="Rin Uout" />
<vehicle type="noVar" depart="84" id="SflowRU.4" route="route_SflowRU.4" />
<route id="route_SflowRD.4" edges="Rin Dout" />
<vehicle type="noVar" depart="84" id="SflowRD.4" route="route_SflowRD.4" />
<route id="route_SflowUL.2" edges="Uin Lout" />
<vehicle type="noVar" depart="85" id="SflowUL.2" route="route_SflowUL.2" />
<route id="route_SflowUR.2" edges="Uin Rout" />
<vehicle type="noVar" depart="85" id="SflowUR.2" route="route_SflowUR.2" />
<route id="route_SflowDL.2" edges="Din Lout" />
<vehicle type="noVar" depart="85" id="SflowDL.2" route="route_SflowDL.2" />
<route id="route_SflowDR.2" edges="Din Rout" />
<vehicle type="noVar" depart="85" id="SflowDR.2" route="route_SflowDR.2" />
<route id="route_SflowLR.9" edges="Lin Rout" />
<vehicle type="noVar" depart="94" id="SflowLR.9" route="route_SflowLR.9" />
<route id="route_SflowRL.9" edges="Rin Lout" />
<vehicle type="noVar" depart="94" id="SflowRL.9" route="route_SflowRL.9" />
<route id="route_SflowUD.7" edges="Uin Dout" />
<vehicle type="noVar" depart="98" id="SflowUD.7" route="route_SflowUD.7" />
<route id="route_SflowDU.7" edges="Din Uout" />
<vehicle type="noVar" depart="98" id="SflowDU.7" route="route_SflowDU.7" />
<route id="route_SflowLR.10" edges="Lin Rout" />
<vehicle type="noVar" depart="105" id="SflowLR.10" route="route_SflowLR.10" />
<route id="route_SflowRL.10" edges="Rin Lout" />
<vehicle type="noVar" depart="105" id="SflowRL.10" route="route_SflowRL.10" />
<route id="route_SflowLU.5" edges="Lin Uout" />
<vehicle type="noVar" depart="106" id="SflowLU.5" route="route_SflowLU.5" />
<route id="route_SflowLD.5" edges="Lin Dout" />
<vehicle type="noVar" depart="106" id="SflowLD.5" route="route_SflowLD.5" />
<route id="route_SflowRU.5" edges="Rin Uout" />
<vehicle type="noVar" depart="106" id="SflowRU.5" route="route_SflowRU.5" />
<route id="route_SflowRD.5" edges="Rin Dout" />
<vehicle type="noVar" depart="106" id="SflowRD.5" route="route_SflowRD.5" />
<route id="route_SflowUD.8" edges="Uin Dout" />
<vehicle type="noVar" depart="112" id="SflowUD.8" route="route_SflowUD.8" />
<route id="route_SflowDU.8" edges="Din Uout" />
<vehicle type="noVar" depart="112" id="SflowDU.8" route="route_SflowDU.8" />
<route id="route_SflowLR.11" edges="Lin Rout" />
<vehicle type="noVar" depart="116" id="SflowLR.11" route="route_SflowLR.11" />
<route id="route_SflowRL.11" edges="Rin Lout" />
<vehicle type="noVar" depart="116" id="SflowRL.11" route="route_SflowRL.11" />
<route id="route_SflowLR.12" edges="Lin Rout" />
<vehicle type="noVar" depart="126" id="SflowLR.12" route="route_SflowLR.12" />
<route id="route_SflowRL.12" edges="Rin Lout" />
<vehicle type="noVar" depart="126" id="SflowRL.12" route="route_SflowRL.12" />
<route id="route_SflowUD.9" edges="Uin Dout" />
<vehicle type="noVar" depart="126" id="SflowUD.9" route="route_SflowUD.9" />
<route id="route_SflowDU.9" edges="Din Uout" />
<vehicle type="noVar" depart="126" id="SflowDU.9" route="route_SflowDU.9" />
<route id="route_SflowLU.6" edges="Lin Uout" />
<vehicle type="noVar" depart="127" id="SflowLU.6" route="route_SflowLU.6" />
<route id="route_SflowLD.6" edges="Lin Dout" />
<vehicle type="noVar" depart="127" id="SflowLD.6" route="route_SflowLD.6" />
<route id="route_SflowRU.6" edges="Rin Uout" />
<vehicle type="noVar" depart="127" id="SflowRU.6" route="route_SflowRU.6" />
<route id="route_SflowRD.6" edges="Rin Dout" />
<vehicle type="noVar" depart="127" id="SflowRD.6" route="route_SflowRD.6" />
<route id="route_SflowUL.3" edges="Uin Lout" />
<vehicle type="noVar" depart="128" id="SflowUL.3" route="route_SflowUL.3" />
<route id="route_SflowUR.3" edges="Uin Rout" />
<vehicle type="noVar" depart="128" id="SflowUR.3" route="route_SflowUR.3" />
<route id="route_SflowDL.3" edges="Din Lout" />
<vehicle type="noVar" depart="128" id="SflowDL.3" route="route_SflowDL.3" />
<route id="route_SflowDR.3" edges="Din Rout" />
<vehicle type="noVar" depart="128" id="SflowDR.3" route="route_SflowDR.3" />
<route id="route_SflowLR.13" edges="Lin Rout" />
<vehicle type="noVar" depart="137" id="SflowLR.13" route="route_SflowLR.13" />
<route id="route_SflowRL.13" edges="Rin Lout" />
<vehicle type="noVar" depart="137" id="SflowRL.13" route="route_SflowRL.13" />
<route id="route_SflowUD.10" edges="Uin Dout" />
<vehicle type="noVar" depart="140" id="SflowUD.10" route="route_SflowUD.10" />
<route id="route_SflowDU.10" edges="Din Uout" />
<vehicle type="noVar" depart="140" id="SflowDU.10" route="route_SflowDU.10" />
<route id="route_SflowLR.14" edges="Lin Rout" />
<vehicle type="noVar" depart="147" id="SflowLR.14" route="route_SflowLR.14" />
<route id="route_SflowRL.14" edges="Rin Lout" />
<vehicle type="noVar" depart="147" id="SflowRL.14" route="route_SflowRL.14" />
<route id="route_SflowLU.7" edges="Lin Uout" />
<vehicle type="noVar" depart="148" id="SflowLU.7" route="route_SflowLU.7" />
<route id="route_SflowLD.7" edges="Lin Dout" />
<vehicle type="noVar" depart="148" id="SflowLD.7" route="route_SflowLD.7" />
<route id="route_SflowRU.7" edges="Rin Uout" />
<vehicle type="noVar" depart="148" id="SflowRU.7" route="route_SflowRU.7" />
<route id="route_SflowRD.7" edges="Rin Dout" />
<vehicle type="noVar" depart="148" id="SflowRD.7" route="route_SflowRD.7" />
<route id="route_SflowUD.11" edges="Uin Dout" />
<vehicle type="noVar" depart="155" id="SflowUD.11" route="route_SflowUD.11" />
<route id="route_SflowDU.11" edges="Din Uout" />
<vehicle type="noVar" depart="155" id="SflowDU.11" route="route_SflowDU.11" />
<route id="route_SflowLR.15" edges="Lin Rout" />
<vehicle type="noVar" depart="158" id="SflowLR.15" route="route_SflowLR.15" />
<route id="route_SflowRL.15" edges="Rin Lout" />
<vehicle type="noVar" depart="158" id="SflowRL.15" route="route_SflowRL.15" />
<route id="route_SflowLR.16" edges="Lin Rout" />
<vehicle type="noVar" depart="168" id="SflowLR.16" route="route_SflowLR.16" />
<route id="route_SflowRL.16" edges="Rin Lout" />
<vehicle type="noVar" depart="168" id="SflowRL.16" route="route_SflowRL.16" />
<route id="route_SflowUD.12" edges="Uin Dout" />
<vehicle type="noVar" depart="169" id="SflowUD.12" route="route_SflowUD.12" />
<route id="route_SflowDU.12" edges="Din Uout" />
<vehicle type="noVar" depart="169" id="SflowDU.12" route="route_SflowDU.12" />
<route id="route_SflowLU.8" edges="Lin Uout" />
<vehicle type="noVar" depart="169" id="SflowLU.8" route="route_SflowLU.8" />
<route id="route_SflowLD.8" edges="Lin Dout" />
<vehicle type="noVar" depart="169" id="SflowLD.8" route="route_SflowLD.8" />
<route id="route_SflowRU.8" edges="Rin Uout" />
<vehicle type="noVar" depart="169" id="SflowRU.8" route="route_SflowRU.8" />
<route id="route_SflowRD.8" edges="Rin Dout" />
<vehicle type="noVar" depart="169" id="SflowRD.8" route="route_SflowRD.8" />
<route id="route_SflowUL.4" edges="Uin Lout" />
<vehicle type="noVar" depart="171" id="SflowUL.4" route="route_SflowUL.4" />
<route id="route_SflowUR.4" edges="Uin Rout" />
<vehicle type="noVar" depart="171" id="SflowUR.4" route="route_SflowUR.4" />
<route id="route_SflowDL.4" edges="Din Lout" />
<vehicle type="noVar" depart="171" id="SflowDL.4" route="route_SflowDL.4" />
<route id="route_SflowDR.4" edges="Din Rout" />
<vehicle type="noVar" depart="171" id="SflowDR.4" route="route_SflowDR.4" />
<route id="route_SflowLR.17" edges="Lin Rout" />
<vehicle type="noVar" depart="179" id="SflowLR.17" route="route_SflowLR.17" />
<route id="route_SflowRL.17" edges="Rin Lout" />
<vehicle type="noVar" depart="179" id="SflowRL.17" route="route_SflowRL.17" />
<route id="route_SflowUD.13" edges="Uin Dout" />
<vehicle type="noVar" depart="183" id="SflowUD.13" route="route_SflowUD.13" />
<route id="route_SflowDU.13" edges="Din Uout" />
<vehicle type="noVar" depart="183" id="SflowDU.13" route="route_SflowDU.13" />
<route id="route_SflowLR.18" edges="Lin Rout" />
<vehicle type="noVar" depart="189" id="SflowLR.18" route="route_SflowLR.18" />
<route id="route_SflowRL.18" edges="Rin Lout" />
<vehicle type="noVar" depart="189" id="SflowRL.18" route="route_SflowRL.18" />
<route id="route_SflowLU.9" edges="Lin Uout" />
<vehicle type="noVar" depart="190" id="SflowLU.9" route="route_SflowLU.9" />
<route id="route_SflowLD.9" edges="Lin Dout" />
<vehicle type="noVar" depart="190" id="SflowLD.9" route="route_SflowLD.9" />
<route id="route_SflowRU.9" edges="Rin Uout" />
<vehicle type="noVar" depart="190" id="SflowRU.9" route="route_SflowRU.9" />
<route id="route_SflowRD.9" edges="Rin Dout" />
<vehicle type="noVar" depart="190" id="SflowRD.9" route="route_SflowRD.9" />
<route id="route_SflowUD.14" edges="Uin Dout" />
<vehicle type="noVar" depart="197" id="SflowUD.14" route="route_SflowUD.14" />
<route id="route_SflowDU.14" edges="Din Uout" />
<vehicle type="noVar" depart="197" id="SflowDU.14" route="route_SflowDU.14" />
<route id="route_SflowLR.19" edges="Lin Rout" />
<vehicle type="noVar" depart="200" id="SflowLR.19" route="route_SflowLR.19" />
<route id="route_SflowRL.19" edges="Rin Lout" />
<vehicle type="noVar" depart="200" id="SflowRL.19" route="route_SflowRL.19" />
<route id="route_SflowLR.20" edges="Lin Rout" />
<vehicle type="noVar" depart="211" id="SflowLR.20" route="route_SflowLR.20" />
<route id="route_SflowRL.20" edges="Rin Lout" />
<vehicle type="noVar" depart="211" id="SflowRL.20" route="route_SflowRL.20" />
<route id="route_SflowUD.15" edges="Uin Dout" />
<vehicle type="noVar" depart="211" id="SflowUD.15" route="route_SflowUD.15" />
<route id="route_SflowDU.15" edges="Din Uout" />
<vehicle type="noVar" depart="211" id="SflowDU.15" route="route_SflowDU.15" />
<route id="route_SflowLU.10" edges="Lin Uout" />
<vehicle type="noVar" depart="212" id="SflowLU.10" route="route_SflowLU.10" />
<route id="route_SflowLD.10" edges="Lin Dout" />
<vehicle type="noVar" depart="212" id="SflowLD.10" route="route_SflowLD.10" />
<route id="route_SflowRU.10" edges="Rin Uout" />
<vehicle type="noVar" depart="212" id="SflowRU.10" route="route_SflowRU.10" />
<route id="route_SflowRD.10" edges="Rin Dout" />
<vehicle type="noVar" depart="212" id="SflowRD.10" route="route_SflowRD.10" />
<route id="route_SflowUL.5" edges="Uin Lout" />
<vehicle type="noVar" depart="214" id="SflowUL.5" route="route_SflowUL.5" />
<route id="route_SflowUR.5" edges="Uin Rout" />
<vehicle type="noVar" depart="214" id="SflowUR.5" route="route_SflowUR.5" />
<route id="route_SflowDL.5" edges="Din Lout" />
<vehicle type="noVar" depart="214" id="SflowDL.5" route="route_SflowDL.5" />
<route id="route_SflowDR.5" edges="Din Rout" />
<vehicle type="noVar" depart="214" id="SflowDR.5" route="route_SflowDR.5" />
<route id="route_SflowLR.21" edges="Lin Rout" />
<vehicle type="noVar" depart="221" id="SflowLR.21" route="route_SflowLR.21" />
<route id="route_SflowRL.21" edges="Rin Lout" />
<vehicle type="noVar" depart="221" id="SflowRL.21" route="route_SflowRL.21" />
<route id="route_SflowUD.16" edges="Uin Dout" />
<vehicle type="noVar" depart="225" id="SflowUD.16" route="route_SflowUD.16" />
<route id="route_SflowDU.16" edges="Din Uout" />
<vehicle type="noVar" depart="225" id="SflowDU.16" route="route_SflowDU.16" />
<route id="route_SflowLR.22" edges="Lin Rout" />
<vehicle type="noVar" depart="232" id="SflowLR.22" route="route_SflowLR.22" />
<route id="route_SflowRL.22" edges="Rin Lout" />
<vehicle type="noVar" depart="232" id="SflowRL.22" route="route_SflowRL.22" />
<route id="route_SflowLU.11" edges="Lin Uout" />
<vehicle type="noVar" depart="233" id="SflowLU.11" route="route_SflowLU.11" />
<route id="route_SflowLD.11" edges="Lin Dout" />
<vehicle type="noVar" depart="233" id="SflowLD.11" route="route_SflowLD.11" />
<route id="route_SflowRU.11" edges="Rin Uout" />
<vehicle type="noVar" depart="233" id="SflowRU.11" route="route_SflowRU.11" />
<route id="route_SflowRD.11" edges="Rin Dout" />
<vehicle type="noVar" depart="233" id="SflowRD.11" route="route_SflowRD.11" />
<route id="route_SflowUD.17" edges="Uin Dout" />
<vehicle type="noVar" depart="239" id="SflowUD.17" route="route_SflowUD.17" />
<route id="route_SflowDU.17" edges="Din Uout" />
<vehicle type="noVar" depart="239" id="SflowDU.17" route="route_SflowDU.17" />
<route id="route_SflowLR.23" edges="Lin Rout" />
<vehicle type="noVar" depart="242" id="SflowLR.23" route="route_SflowLR.23" />
<route id="route_SflowRL.23" edges="Rin Lout" />
<vehicle type="noVar" depart="242" id="SflowRL.23" route="route_SflowRL.23" />
<route id="route_SflowLR.24" edges="Lin Rout" />
<vehicle type="noVar" depart="253" id="SflowLR.24" route="route_SflowLR.24" />
<route id="route_SflowRL.24" edges="Rin Lout" />
<vehicle type="noVar" depart="253" id="SflowRL.24" route="route_SflowRL.24" />
<route id="route_SflowUD.18" edges="Uin Dout" />
<vehicle type="noVar" depart="253" id="SflowUD.18" route="route_SflowUD.18" />
<route id="route_SflowDU.18" edges="Din Uout" />
<vehicle type="noVar" depart="253" id="SflowDU.18" route="route_SflowDU.18" />
<route id="route_SflowLU.12" edges="Lin Uout" />
<vehicle type="noVar" depart="254" id="SflowLU.12" route="route_SflowLU.12" />
<route id="route_SflowLD.12" edges="Lin Dout" />
<vehicle type="noVar" depart="254" id="SflowLD.12" route="route_SflowLD.12" />
<route id="route_SflowRU.12" edges="Rin Uout" />
<vehicle type="noVar" depart="254" id="SflowRU.12" route="route_SflowRU.12" />
<route id="route_SflowRD.12" edges="Rin Dout" />
<vehicle type="noVar" depart="254" id="SflowRD.12" route="route_SflowRD.12" />
<route id="route_SflowUL.6" edges="Uin Lout" />
<vehicle type="noVar" depart="257" id="SflowUL.6" route="route_SflowUL.6" />
<route id="route_SflowUR.6" edges="Uin Rout" />
<vehicle type="noVar" depart="257" id="SflowUR.6" route="route_SflowUR.6" />
<route id="route_SflowDL.6" edges="Din Lout" />
<vehicle type="noVar" depart="257" id="SflowDL.6" route="route_SflowDL.6" />
<route id="route_SflowDR.6" edges="Din Rout" />
<vehicle type="noVar" depart="257" id="SflowDR.6" route="route_SflowDR.6" />
<route id="route_SflowLR.25" edges="Lin Rout" />
<vehicle type="noVar" depart="263" id="SflowLR.25" route="route_SflowLR.25" />
<route id="route_SflowRL.25" edges="Rin Lout" />
<vehicle type="noVar" depart="263" id="SflowRL.25" route="route_SflowRL.25" />
<route id="route_SflowUD.19" edges="Uin Dout" />
<vehicle type="noVar" depart="267" id="SflowUD.19" route="route_SflowUD.19" />
<route id="route_SflowDU.19" edges="Din Uout" />
<vehicle type="noVar" depart="267" id="SflowDU.19" route="route_SflowDU.19" />
<route id="route_SflowLR.26" edges="Lin Rout" />
<vehicle type="noVar" depart="274" id="SflowLR.26" route="route_SflowLR.26" />
<route id="route_SflowRL.26" edges="Rin Lout" />
<vehicle type="noVar" depart="274" id="SflowRL.26" route="route_SflowRL.26" />
<route id="route_SflowLU.13" edges="Lin Uout" />
<vehicle type="noVar" depart="275" id="SflowLU.13" route="route_SflowLU.13" />
<route id="route_SflowLD.13" edges="Lin Dout" />
<vehicle type="noVar" depart="275" id="SflowLD.13" route="route_SflowLD.13" />
<route id="route_SflowRU.13" edges="Rin Uout" />
<vehicle type="noVar" depart="275" id="SflowRU.13" route="route_SflowRU.13" />
<route id="route_SflowRD.13" edges="Rin Dout" />
<vehicle type="noVar" depart="275" id="SflowRD.13" route="route_SflowRD.13" />
<route id="route_SflowUD.20" edges="Uin Dout" />
<vehicle type="noVar" depart="281" id="SflowUD.20" route="route_SflowUD.20" />
<route id="route_SflowDU.20" edges="Din Uout" />
<vehicle type="noVar" depart="281" id="SflowDU.20" route="route_SflowDU.20" />
<route id="route_SflowLR.27" edges="Lin Rout" />
<vehicle type="noVar" depart="284" id="SflowLR.27" route="route_SflowLR.27" />
<route id="route_SflowRL.27" edges="Rin Lout" />
<vehicle type="noVar" depart="284" id="SflowRL.27" route="route_SflowRL.27" />
<route id="route_SflowLR.28" edges="Lin Rout" />
<vehicle type="noVar" depart="295" id="SflowLR.28" route="route_SflowLR.28" />
<route id="route_SflowRL.28" edges="Rin Lout" />
<vehicle type="noVar" depart="295" id="SflowRL.28" route="route_SflowRL.28" />
<route id="route_SflowUD.21" edges="Uin Dout" />
<vehicle type="noVar" depart="295" id="SflowUD.21" route="route_SflowUD.21" />
<route id="route_SflowDU.21" edges="Din Uout" />
<vehicle type="noVar" depart="295" id="SflowDU.21" route="route_SflowDU.21" />
<route id="route_SflowLU.14" edges="Lin Uout" />
<vehicle type="noVar" depart="296" id="SflowLU.14" route="route_SflowLU.14" />
<route id="route_SflowLD.14" edges="Lin Dout" />
<vehicle type="noVar" depart="296" id="SflowLD.14" route="route_SflowLD.14" />
<route id="route_SflowRU.14" edges="Rin Uout" />
<vehicle type="noVar" depart="296" id="SflowRU.14" route="route_SflowRU.14" />
<route id="route_SflowRD.14" edges="Rin Dout" />
<vehicle type="noVar" depart="296" id="SflowRD.14" route="route_SflowRD.14" />
<route id="route_SflowUL.7" edges="Uin Lout" />
<vehicle type="noVar" depart="300" id="SflowUL.7" route="route_SflowUL.7" />
<route id="route_SflowUR.7" edges="Uin Rout" />
<vehicle type="noVar" depart="300" id="SflowUR.7" route="route_SflowUR.7" />
<route id="route_SflowDL.7" edges="Din Lout" />
<vehicle type="noVar" depart="300" id="SflowDL.7" route="route_SflowDL.7" />
<route id="route_SflowDR.7" edges="Din Rout" />
<vehicle type="noVar" depart="300" id="SflowDR.7" route="route_SflowDR.7" />
<route id="route_SflowLR.29" edges="Lin Rout" />
<vehicle type="noVar" depart="306" id="SflowLR.29" route="route_SflowLR.29" />
<route id="route_SflowRL.29" edges="Rin Lout" />
<vehicle type="noVar" depart="306" id="SflowRL.29" route="route_SflowRL.29" />
<route id="route_SflowUD.22" edges="Uin Dout" />
<vehicle type="noVar" depart="310" id="SflowUD.22" route="route_SflowUD.22" />
<route id="route_SflowDU.22" edges="Din Uout" />
<vehicle type="noVar" depart="310" id="SflowDU.22" route="route_SflowDU.22" />
<route id="route_SflowLR.30" edges="Lin Rout" />
<vehicle type="noVar" depart="316" id="SflowLR.30" route="route_SflowLR.30" />
<route id="route_SflowRL.30" edges="Rin Lout" />
<vehicle type="noVar" depart="316" id="SflowRL.30" route="route_SflowRL.30" />
<route id="route_SflowLU.15" edges="Lin Uout" />
<vehicle type="noVar" depart="318" id="SflowLU.15" route="route_SflowLU.15" />
<route id="route_SflowLD.15" edges="Lin Dout" />
<vehicle type="noVar" depart="318" id="SflowLD.15" route="route_SflowLD.15" />
<route id="route_SflowRU.15" edges="Rin Uout" />
<vehicle type="noVar" depart="318" id="SflowRU.15" route="route_SflowRU.15" />
<route id="route_SflowRD.15" edges="Rin Dout" />
<vehicle type="noVar" depart="318" id="SflowRD.15" route="route_SflowRD.15" />
<route id="route_SflowUD.23" edges="Uin Dout" />
<vehicle type="noVar" depart="324" id="SflowUD.23" route="route_SflowUD.23" />
<route id="route_SflowDU.23" edges="Din Uout" />
<vehicle type="noVar" depart="324" id="SflowDU.23" route="route_SflowDU.23" />
<route id="route_SflowLR.31" edges="Lin Rout" />
<vehicle type="noVar" depart="327" id="SflowLR.31" route="route_SflowLR.31" />
<route id="route_SflowRL.31" edges="Rin Lout" />
<vehicle type="noVar" depart="327" id="SflowRL.31" route="route_SflowRL.31" />
<route id="route_SflowLR.32" edges="Lin Rout" />
<vehicle type="noVar" depart="337" id="SflowLR.32" route="route_SflowLR.32" />
<route id="route_SflowRL.32" edges="Rin Lout" />
<vehicle type="noVar" depart="337" id="SflowRL.32" route="route_SflowRL.32" />
<route id="route_SflowUD.24" edges="Uin Dout" />
<vehicle type="noVar" depart="338" id="SflowUD.24" route="route_SflowUD.24" />
<route id="route_SflowDU.24" edges="Din Uout" />
<vehicle type="noVar" depart="338" id="SflowDU.24" route="route_SflowDU.24" />
<route id="route_SflowLU.16" edges="Lin Uout" />
<vehicle type="noVar" depart="339" id="SflowLU.16" route="route_SflowLU.16" />
<route id="route_SflowLD.16" edges="Lin Dout" />
<vehicle type="noVar" depart="339" id="SflowLD.16" route="route_SflowLD.16" />
<route id="route_SflowRU.16" edges="Rin Uout" />
<vehicle type="noVar" depart="339" id="SflowRU.16" route="route_SflowRU.16" />
<route id="route_SflowRD.16" edges="Rin Dout" />
<vehicle type="noVar" depart="339" id="SflowRD.16" route="route_SflowRD.16" />
<route id="route_SflowUL.8" edges="Uin Lout" />
<vehicle type="noVar" depart="342" id="SflowUL.8" route="route_SflowUL.8" />
<route id="route_SflowUR.8" edges="Uin Rout" />
<vehicle type="noVar" depart="342" id="SflowUR.8" route="route_SflowUR.8" />
<route id="route_SflowDL.8" edges="Din Lout" />
<vehicle type="noVar" depart="342" id="SflowDL.8" route="route_SflowDL.8" />
<route id="route_SflowDR.8" edges="Din Rout" />
<vehicle type="noVar" depart="342" id="SflowDR.8" route="route_SflowDR.8" />
<route id="route_SflowLR.33" edges="Lin Rout" />
<vehicle type="noVar" depart="348" id="SflowLR.33" route="route_SflowLR.33" />
<route id="route_SflowRL.33" edges="Rin Lout" />
<vehicle type="noVar" depart="348" id="SflowRL.33" route="route_SflowRL.33" />
<route id="route_SflowUD.25" edges="Uin Dout" />
<vehicle type="noVar" depart="352" id="SflowUD.25" route="route_SflowUD.25" />
<route id="route_SflowDU.25" edges="Din Uout" />
<vehicle type="noVar" depart="352" id="SflowDU.25" route="route_SflowDU.25" />
<route id="route_SflowLR.34" edges="Lin Rout" />
<vehicle type="noVar" depart="358" id="SflowLR.34" route="route_SflowLR.34" />
<route id="route_SflowRL.34" edges="Rin Lout" />
<vehicle type="noVar" depart="358" id="SflowRL.34" route="route_SflowRL.34" />
<route id="route_SflowLU.17" edges="Lin Uout" />
<vehicle type="noVar" depart="360" id="SflowLU.17" route="route_SflowLU.17" />
<route id="route_SflowLD.17" edges="Lin Dout" />
<vehicle type="noVar" depart="360" id="SflowLD.17" route="route_SflowLD.17" />
<route id="route_SflowRU.17" edges="Rin Uout" />
<vehicle type="noVar" depart="360" id="SflowRU.17" route="route_SflowRU.17" />
<route id="route_SflowRD.17" edges="Rin Dout" />
<vehicle type="noVar" depart="360" id="SflowRD.17" route="route_SflowRD.17" />
<route id="route_SflowUD.26" edges="Uin Dout" />
<vehicle type="noVar" depart="366" id="SflowUD.26" route="route_SflowUD.26" />
<route id="route_SflowDU.26" edges="Din Uout" />
<vehicle type="noVar" depart="366" id="SflowDU.26" route="route_SflowDU.26" />
<route id="route_SflowLR.35" edges="Lin Rout" />
<vehicle type="noVar" depart="369" id="SflowLR.35" route="route_SflowLR.35" />
<route id="route_SflowRL.35" edges="Rin Lout" />
<vehicle type="noVar" depart="369" id="SflowRL.35" route="route_SflowRL.35" />
<route id="route_SflowLR.36" edges="Lin Rout" />
<vehicle type="noVar" depart="379" id="SflowLR.36" route="route_SflowLR.36" />
<route id="route_SflowRL.36" edges="Rin Lout" />