<?xml version="1.0" encoding="UTF-8"?>
<routes xmlns:xsi="http://www.w3.org/2001/XMLSchema-instance" xsi:noNamespaceSchemaLocation="http://sumo.dlr.de/xsd/routes_file.xsd">

<vType id="noVar" speedFactor="1.0" speedDev="0.0"/>
<route id="route_SflowLR.0" edges="Lin Rout" />
<vehicle type="noVar" depart="0" id="SflowLR.0" route="route_SflowLR.0" />
<route id="route_SflowRL.0" edges="Rin Lout" />
<vehicle type="noVar" depart="0" id="SflowRL.0" route="route_SflowRL.0" />
<route id="route_SflowUD.0" edges="Uin Dout" />
<vehicle type="noVar" depart="0" id="SflowUD.0" route="route_SflowUD.0" />
<route id="route_SflowDU.0" edges="Din Uout" />
<vehicle type="noVar" depart="0" id="SflowDU.0" route="route_SflowDU.0" />
<route id="route_SflowLR.1" edges="Lin Rout" />
<vehicle type="noVar" depart="4" id="SflowLR.1" route="route_SflowLR.1" />
<route id="route_SflowRL.1" edges="Rin Lout" />
<vehicle type="noVar" depart="4" id="SflowRL.1" route="route_SflowRL.1" />
<route id="route_SflowUD.1" edges="Uin Dout" />
<vehicle type="noVar" depart="6" id="SflowUD.1" route="route_SflowUD.1" />
<route id="route_SflowDU.1" edges="Din Uout" />
<vehicle type="noVar" depart="6" id="SflowDU.1" route="route_SflowDU.1" />
<route id="route_SflowLR.2" edges="Lin Rout" />
<vehicle type="noVar" depart="8" id="SflowLR.2" route="route_SflowLR.2" />
<route id="route_SflowRL.2" edges="Rin Lout" />
<vehicle type="noVar" depart="8" id="SflowRL.2" route="route_SflowRL.2" />
<route id="route_SflowLR.3" edges="Lin Rout" />
<vehicle type="noVar" depart="12" id="SflowLR.3" route="route_SflowLR.3" />
<route id="route_SflowRL.3" edges="Rin Lout" />
<vehicle type="noVar" depart="12" id="SflowRL.3" route="route_SflowRL.3" />
<route id="route_SflowUD.2" edges="Uin Dout" />
<vehicle type="noVar" depart="13" id="SflowUD.2" route="route_SflowUD.2" />
<route id="route_SflowDU.2" edges="Din Uout" />
<vehicle type="noVar" depart="13" id="SflowDU.2" route="route_SflowDU.2" />
<route id="route_SflowLR.4" edges="Lin Rout" />
<vehicle type="noVar" depart="16" id="SflowLR.4" route="route_SflowLR.4" />
<route id="route_SflowRL.4" edges="Rin Lout" />
<vehicle type="noVar" depart="16" id="SflowRL.4" route="route_SflowRL.4" />
<route id="route_SflowUD.3" edges="Uin Dout" />
<vehicle type="noVar" depart="20" id="SflowUD.3" route="route_SflowUD.3" />
<route id="route_SflowDU.3" edges="Din Uout" />
<vehicle type="noVar" depart="20" id="SflowDU.3" route="route_SflowDU.3" />
<route id="route_SflowLR.5" edges="Lin Rout" />
<vehicle type="noVar" depart="21" id="SflowLR.5" route="route_SflowLR.5" />
<route id="route_SflowRL.5" edges="Rin Lout" />
<vehicle type="noVar" depart="21" id="SflowRL.5" route="route_SflowRL.5" />
<route id="route_SflowLR.6" edges="Lin Rout" />
<vehicle type="noVar" depart="25" id="SflowLR.6" route="route_SflowLR.6" />
<route id="route_SflowRL.6" edges="Rin Lout" />
<vehicle type="noVar" depart="25" id="SflowRL.6" route="route_SflowRL.6" />
<route id="route_SflowUD.4" edges="Uin Dout" />
<vehicle type="noVar" depart="26" id="SflowUD.4" route="route_SflowUD.4" />
<route id="route_SflowDU.4" edges="Din Uout" />
<vehicle type="noVar" depart="26" id="SflowDU.4" route="route_SflowDU.4" />
<route id="route_SflowLR.7" edges="Lin Rout" />
<vehicle type="noVar" depart="29" id="SflowLR.7" route="route_SflowLR.7" />
<route id="route_SflowRL.7" edges="Rin Lout" />
<vehicle type="noVar" depart="29" id="SflowRL.7" route="route_SflowRL.7" />
<route id="route_SflowUD.5" edges="Uin Dout" />
<vehicle type="noVar" depart="33" id="SflowUD.5" route="route_SflowUD.5" />
<route id="route_SflowDU.5" edges="Din Uout" />
<vehicle type="noVar" depart="33" id="SflowDU.5" route="route_SflowDU.5" />
<route id="route_SflowLR.8" edges="Lin Rout" />
<vehicle type="noVar" depart="33" id="SflowLR.8" route="route_SflowLR.8" />
<route id="route_SflowRL.8" edges="Rin Lout" />
<vehicle type="noVar" depart="33" id="SflowRL.8" route="route_SflowRL.8" />
<route id="route_SflowLR.9" edges="Lin Rout" />
<vehicle type="noVar" depart="37" id="SflowLR.9" route="route_SflowLR.9" />
<route id="route_SflowRL.9" edges="Rin Lout" />
<vehicle type="noVar" depart="37" id="SflowRL.9" route="route_SflowRL.9" />
<route id="route_SflowUD.6" edges="Uin Dout" />
<vehicle type="noVar" depart="40" id="SflowUD.6" route="route_SflowUD.6" />
<route id="route_SflowDU.6" edges="Din Uout" />
<vehicle type="noVar" depart="40" id="SflowDU.6" route="route_SflowDU.6" />
<route id="route_SflowLR.10" edges="Lin Rout" />
<vehicle type="noVar" depart="42" id="SflowLR.10" route="route_SflowLR.10" />
<route id="route_SflowRL.10" edges="Rin Lout" />
<vehicle type="noVar" depart="42" id="SflowRL.10" route="route_SflowRL.10" />
<route id="route_SflowLR.11" edges="Lin Rout" />
<vehicle type="noVar" depart="46" id="SflowLR.11" route="route_SflowLR.11" />
<route id="route_SflowRL.11" edges="Rin Lout" />
<vehicle type="noVar" depart="46" id="SflowRL.11" route="route_SflowRL.11" />
<route id="route_SflowUD.7" edges="Uin Dout" />
<vehicle type="noVar" depart="46" id="SflowUD.7" route="route_SflowUD.7" />
<route id="route_SflowDU.7" edges="Din Uout" />
<vehicle type="noVar" depart="46" id="SflowDU.7" route="route_SflowDU.7" />
<route id="route_SflowLR.12" edges="Lin Rout" />
<vehicle type="noVar" depart="50" id="SflowLR.12" route="route_SflowLR.12" />
<route id="route_SflowRL.12" edges="Rin Lout" />
<vehicle type="noVar" depart="50" id="SflowRL.12" route="route_SflowRL.12" />
<route id="route_SflowUD.8" edges="Uin Dout" />
<vehicle type="noVar" depart="53" id="SflowUD.8" route="route_SflowUD.8" />
<route id="route_SflowDU.8" edges="Din Uout" />
<vehicle type="noVar" depart="53" id="SflowDU.8" route="route_SflowDU.8" />
<route id="route_SflowLR.13" edges="Lin Rout" />
<vehicle type="noVar" depart="54" id="SflowLR.13" route="route_SflowLR.13" />
<route id="route_SflowRL.13" edges="Rin Lout" />
<vehicle type="noVar" depart="54" id="SflowRL.13" route="route_SflowRL.13" />
<route id="route_SflowLR.14" edges="Lin Rout" />
<vehicle type="noVar" depart="59" id="SflowLR.14" route="route_SflowLR.14" />
<route id="route_SflowRL.14" edges="Rin Lout" />
<vehicle type="noVar" depart="59" id="SflowRL.14" route="route_SflowRL.14" />
<route id="route_SflowUD.9" edges="Uin Dout" />
<vehicle type="noVar" depart="60" id="SflowUD.9" route="route_SflowUD.9" />
<route id="route_SflowDU.9" edges="Din Uout" />
<vehicle type="noVar" depart="60" id="SflowDU.9" route="route_SflowDU.9" />
<route id="route_SflowLR.15" edges="Lin Rout" />
<vehicle type="noVar" depart="63" id="SflowLR.15" route="route_SflowLR.15" />
<route id="route_SflowRL.15" edges="Rin Lout" />
<vehicle type="noVar" depart="63" id="SflowRL.15" route="route_SflowRL.15" />
<route id="route_SflowUD.10" edges="Uin Dout" />
<vehicle type="noVar" depart="66" id="SflowUD.10" route="route_SflowUD.10" />
<route id="route_SflowDU.10" edges="Din Uout" />
<vehicle type="noVar" depart="66" id="SflowDU.10" route="route_SflowDU.10" />
<route id="route_SflowLR.16" edges="Lin Rout" />
<vehicle type="noVar" depart="67" id="SflowLR.16" route="route_SflowLR.16" />
<route id="route_SflowRL.16" edges="Rin Lout" />
<vehicle type="noVar" depart="67" id="SflowRL.16" route="route_SflowRL.16" />
<route id="route_SflowLR.17" edges="Lin Rout" />
<vehicle type="noVar" depart="71" id="SflowLR.17" route="route_SflowLR.17" />
<route id="route_SflowRL.17" edges="Rin Lout" />
<vehicle type="noVar" depart="71" id="SflowRL.17" route="route_SflowRL.17" />
<route id="route_SflowUD.11" edges="Uin Dout" />
<vehicle type="noVar" depart="73" id="SflowUD.11" route="route_SflowUD.11" />
<route id="route_SflowDU.11" edges="Din Uout" />
<vehicle type="noVar" depart="73" id="SflowDU.11" route="route_SflowDU.11" />
<route id="route_SflowLR.18" edges="Lin Rout" />
<vehicle type="noVar" depart="75" id="SflowLR.18" route="route_SflowLR.18" />
<route id="route_SflowRL.18" edges="Rin Lout" />
<vehicle type="noVar" depart="75" id="SflowRL.18" route="route_SflowRL.18" />
<route id="route_SflowLR.19" edges="Lin Rout" />
<vehicle type="noVar" depart="80" id="SflowLR.19" route="route_SflowLR.19" />
<route id="route_SflowRL.19" edges="Rin Lout" />
<vehicle type="noVar" depart="80" id="SflowRL.19" route="route_SflowRL.19" />
<route id="route_SflowUD.12" edges="Uin Dout" />
<vehicle type="noVar" depart="80" id="SflowUD.12" route="route_SflowUD.12" />
<route id="route_SflowDU.12" edges="Din Uout" />
<vehicle type="noVar" depart="80" id="SflowDU.12" route="route_SflowDU.12" />
<route id="route_SflowLR.20" edges="Lin Rout" />
<vehicle type="noVar" depart="84" id="SflowLR.20" route="route_SflowLR.20" />
<route id="route_SflowRL.20" edges="Rin Lout" />
<vehicle type="noVar" depart="84" id="SflowRL.20" route="route_SflowRL.20" />
<route id="route_SflowUD.13" edges="Uin Dout" />
<vehicle type="noVar" depart="86" id="SflowUD.13" route="route_SflowUD.13" />
<route id="route_SflowDU.13" edges="Din Uout" />
<vehicle type="noVar" depart="86" id="SflowDU.13" route="route_SflowDU.13" />
<route id="route_SflowLR.21" edges="Lin Rout" />
<vehicle type="noVar" depart="88" id="SflowLR.21" route="route_SflowLR.21" />
<route id="route_SflowRL.21" edges="Rin Lout" />
<vehicle type="noVar" depart="88" id="SflowRL.21" route="route_SflowRL.21" />
<route id="route_SflowLR.22" edges="Lin Rout" />
<vehicle type="noVar" depart="92" id="SflowLR.22" route="route_SflowLR.22" />
<route id="route_SflowRL.22" edges="Rin Lout" />
<vehicle type="noVar" depart="92" id="SflowRL.22" route="route_SflowRL.22" />
<route id="route_SflowUD.14" edges="Uin Dout" />
<vehicle type="noVar" depart="93" id="SflowUD.14" route="route_SflowUD.14" />
<route id="route_SflowDU.14" edges="Din Uout" />
<vehicle type="noVar" depart="93" id="SflowDU.14" route="route_SflowDU.14" />
<route id="route_SflowLR.23" edges="Lin Rout" />
<vehicle type="noVar" depart="97" id="SflowLR.23" route="route_SflowLR.23" />
<route id="route_SflowRL.23" edges="Rin Lout" />
<vehicle type="noVar" depart="97" id="SflowRL.23" route="route_SflowRL.23" />
<route id="route_SflowUD.15" edges="Uin Dout" />
<vehicle type="noVar" depart="100" id="SflowUD.15" route="route_SflowUD.15" />
<route id="route_SflowDU.15" edges="Din Uout" />
<vehicle type="noVar" depart="100" id="SflowDU.15" route="route_SflowDU.15" />
<route id="route_SflowLR.24" edges="Lin Rout" />
<vehicle type="noVar" depart="101" id="SflowLR.24" route="route_SflowLR.24" />
<route id="route_SflowRL.24" edges="Rin Lout" />
<vehicle type="noVar" depart="101" id="SflowRL.24" route="route_SflowRL.24" />
<route id="route_SflowLR.25" edges="Lin Rout" />
<vehicle type="noVar" depart="105" id="SflowLR.25" route="route_SflowLR.25" />
<route id="route_SflowRL.25" edges="Rin Lout" />
<vehicle type="noVar" depart="105" id="SflowRL.25" route="route_SflowRL.25" />
<route id="route_SflowUD.16" edges="Uin Dout" />
<vehicle type="noVar" depart="107" id="SflowUD.16" route="route_SflowUD.16" />
<route id="route_SflowDU.16" edges="Din Uout" />
<vehicle type="noVar" depart="107" id="SflowDU.16" route="route_SflowDU.16" />
<route id="route_SflowLR.26" edges="Lin Rout" />
<vehicle type="noVar" depart="109" id="SflowLR.26" route="route_SflowLR.26" />
<route id="route_SflowRL.26" edges="Rin Lout" />
<vehicle type="noVar" depart="109" id="SflowRL.26" route="route_SflowRL.26" />
<route id="route_SflowUD.17" edges="Uin Dout" />
<vehicle type="noVar" depart="113" id="SflowUD.17" route="route_SflowUD.17" />
<route id="route_SflowDU.17" edges="Din Uout" />
<vehicle type="noVar" depart="113" id="SflowDU.17" route="route_SflowDU.17" />
<route id="route_SflowLR.27" edges="Lin Rout" />
<vehicle type="noVar" depart="113" id="SflowLR.27" route="route_SflowLR.27" />
<route id="route_SflowRL.27" edges="Rin Lout" />
<vehicle type="noVar" depart="113" id="SflowRL.27" route="route_SflowRL.27" />
<route id="route_SflowLR.28" edges="Lin Rout" />
<vehicle type="noVar" depart="118" id="SflowLR.28" route="route_SflowLR.28" />
<route id="route_SflowRL.28" edges="Rin Lout" />
<vehicle type="noVar" depart="118" id="SflowRL.28" route="route_SflowRL.28" />
<route id="route_SflowUD.18" edges="Uin Dout" />
<vehicle type="noVar" depart="120" id="SflowUD.18" route="route_SflowUD.18" />
<route id="route_SflowDU.18" edges="Din Uout" />
<vehicle type="noVar" depart="120" id="SflowDU.18" route="route_SflowDU.18" />
<route id="route_SflowLR.29" edges="Lin Rout" />
<vehicle type="noVar" depart="122" id="SflowLR.29" route="route_SflowLR.29" />
<route id="route_SflowRL.29" edges="Rin Lout" />
<vehicle type="noVar" depart="122" id="SflowRL.29" route="route_SflowRL.29" />
<route id="route_SflowLR.30" edges="Lin Rout" />
<vehicle type="noVar" depart="126" id="SflowLR.30" route="route_SflowLR.30" />
<route id="route_SflowRL.30" edges="Rin Lout" />
<vehicle type="noVar" depart="126" id="SflowRL.30" route="route_SflowRL.30" />
<route id="route_SflowUD.19" edges="Uin Dout" />
<vehicle type="noVar" depart="127" id="SflowUD.19" route="route_SflowUD.19" />
<route id="route_SflowDU.19" edges="Din Uout" />
<vehicle type="noVar" depart="127" id="SflowDU.19" route="route_SflowDU.19" />
<route id="route_SflowLR.31" edges="Lin Rout" />
<vehicle type="noVar" depart="130" id="SflowLR.31" route="route_SflowLR.31" />
<route id="route_SflowRL.31" edges="Rin Lout" />
<vehicle type="noVar" depart="130" id="SflowRL.31" route="route_SflowRL.31" />
<route id="route_SflowUD.20" edges="Uin Dout" />
<vehicle type="noVar" depart="133" id="SflowUD.20" route="route_SflowUD.20" />
<route id="route_SflowDU.20" edges="Din Uout" />
<vehicle type="noVar" depart="133" id="SflowDU.20" route="route_SflowDU.20" />
<route id="route_SflowLR.32" edges="Lin Rout" />
<vehicle type="noVar" depart="135" id="SflowLR.32" route="route_SflowLR.32" />
<route id="route_SflowRL.32" edges="Rin Lout" />
<vehicle type="noVar" depart="135" id="SflowRL.32" route="route_SflowRL.32" />
<route id="route_SflowLR.33" edges="Lin Rout" />
<vehicle type="noVar" depart="139" id="SflowLR.33" route="route_SflowLR.33" />
<route id="route_SflowRL.33" edges="Rin Lout" />
<vehicle type="noVar" depart="139" id="SflowRL.33" route="route_SflowRL.33" />
<route id="route_SflowUD.21" edges="Uin Dout" />
<vehicle type="noVar" depart="140" id="SflowUD.21" route="route_SflowUD.21" />
<route id="route_SflowDU.21" edges="Din Uout" />
<vehicle type="noVar" depart="140" id="SflowDU.21" route="route_SflowDU.21" />
<route id="route_SflowLR.34" edges="Lin Rout" />
<vehicle type="noVar" depart="143" id="SflowLR.34" route="route_SflowLR.34" />
<route id="route_SflowRL.34" edges="Rin Lout" />
<vehicle type="noVar" depart="143" id="SflowRL.34" route="route_SflowRL.34" />
<route id="route_SflowUD.22" edges="Uin Dout" />
<vehicle type="noVar" depart="147" id="SflowUD.22" route="route_SflowUD.22" />
<route id="route_SflowDU.22" edges="Din Uout" />
<vehicle type="noVar" depart="147" id="SflowDU.22" route="route_SflowDU.22" />
<route id="route_SflowLR.35" edges="Lin Rout" />
<vehicle type="noVar" depart="147" id="SflowLR.35" route="route_SflowLR.35" />
<route id="route_SflowRL.35" edges="Rin Lout" />
<vehicle type="noVar" depart="147" id="SflowRL.35" route="route_SflowRL.35" />
<route id="route_SflowLR.36" edges="Lin Rout" />
<vehicle type="noVar" depart="151" id="SflowLR.36" route="route_SflowLR.36" />
<route id="route_SflowRL.36" edges="Rin Lout" />
<vehicle type="noVar" depart="151" id="SflowRL.36" route="route_SflowRL.36" />
<route id="route_SflowUD.23" edges="Uin Dout" />
<vehicle type="noVar" depart="153" id="SflowUD.23" route="route_SflowUD.23" />
<route id="route_SflowDU.23" edges="Din Uout" />
<vehicle type="noVar" depart="153" id="SflowDU.23" route="route_SflowDU.23" />
<route id="route_SflowLR.37" edges="Lin Rout" />
<vehicle type="noVar" depart="156" id="SflowLR.37" route="route_SflowLR.37" />
<route id="route_SflowRL.37" edges="Rin Lout" />
<vehicle type="noVar" depart="156" id="SflowRL.37" route="route_SflowRL.37" />
<route id="route_SflowLR.38" edges="Lin Rout" />
<vehicle type="noVar" depart="160" id="SflowLR.38" route="route_SflowLR.38" />
<route id="route_SflowRL.38" edges="Rin Lout" />
<vehicle type="noVar" depart="160" id="SflowRL.38" route="route_SflowRL.38" />
<route id="route_SflowUD.24" edges="Uin Dout" />
<vehicle type="noVar" depart="160" id="SflowUD.24" route="route_SflowUD.24" />
<route id="route_SflowDU.24" edges="Din Uout" />
<vehicle type="noVar" depart="160" id="SflowDU.24" route="route_SflowDU.24" />
<route id="route_SflowLR.39" edges="Lin Rout" />
<vehicle type="noVar" depart="164" id="SflowLR.39" route="route_SflowLR.39" />
<route id="route_SflowRL.39" edges="Rin Lout" />
<vehicle type="noVar" depart="164" id="SflowRL.39" route="route_SflowRL.39" />
<route id="route_SflowUD.25" edges="Uin Dout" />
<vehicle type="noVar" depart="167" id="SflowUD.25" route="route_SflowUD.25" />
<route id="route_SflowDU.25" edges="Din Uout" />
<vehicle type="noVar" depart="167" id="SflowDU.25" route="route_SflowDU.25" />
<route id="route_SflowLR.40" edges="Lin Rout" />
<vehicle type="noVar" depart="168" id="SflowLR.40" route="route_SflowLR.40" />
<route id="route_SflowRL.40" edges="Rin Lout" />
<vehicle type="noVar" depart="168" id="SflowRL.40" route="route_SflowRL.40" />
<route id="route_SflowLR.41" edges="Lin Rout" />
<vehicle type="noVar" depart="172" id="SflowLR.41" route="route_SflowLR.41" />
<route id="route_SflowRL.41" edges="Rin Lout" />
<vehicle type="noVar" depart="172" id="SflowRL.41" route="route_SflowRL.41" />
<route id="route_SflowUD.26" edges="Uin Dout" />
<vehicle type="noVar" depart="173" id="SflowUD.26" route="route_SflowUD.26" />
<route id="route_SflowDU.26" edges="Din Uout" />
<vehicle type="noVar" depart="173" id="SflowDU.26" route="route_SflowDU.26" />
<route id="route_SflowLR.42" edges="Lin Rout" />
<vehicle type="noVar" depart="177" id="SflowLR.42" route="route_SflowLR.42" />
<route id="route_SflowRL.42" edges="Rin Lout" />
<vehicle type="noVar" depart="177" id="SflowRL.42" route="route_SflowRL.42" />
<route id="route_SflowUD.27" edges="Uin Dout" />
<vehicle type="noVar" depart="180" id="SflowUD.27" route="route_SflowUD.27" />
<route id="route_SflowDU.27" edges="Din Uout" />
<vehicle type="noVar" depart="180" id="SflowDU.27" route="route_SflowDU.27" />
<route id="route_SflowLR.43" edges="Lin Rout" />
<vehicle type="noVar" depart="181" id="SflowLR.43" route="route_SflowLR.43" />
<route id="route_SflowRL.43" edges="Rin Lout" />
<vehicle type="noVar" depart="181" id="SflowRL.43" route="route_SflowRL.43" />
<route id="route_SflowLR.44" edges="Lin Rout" />
<vehicle type="noVar" depart="185" id="SflowLR.44" route="route_SflowLR.44" />
<route id="route_SflowRL.44" edges="Rin Lout" />
<vehicle type="noVar" depart="185" id="SflowRL.44" route="route_SflowRL.44" />
<route id="route_SflowUD.28" edges="Uin Dout" />
<vehicle type="noVar" depart="187" id="SflowUD.28" route="route_SflowUD.28" />
<route id="route_SflowDU.28" edges="Din Uout" />
<vehicle type="noVar" depart="187" id="SflowDU.28" route="route_SflowDU.28" />
<route id="route_SflowLR.45" edges="Lin Rout" />
<vehicle type="noVar" depart="189" id="SflowLR.45" route="route_SflowLR.45" />
<route id="route_SflowRL.45" edges="Rin Lout" />
<vehicle type="noVar" depart="189" id="SflowRL.45" route="route_SflowRL.45" />
<route id="route_SflowUD.29" edges="Uin Dout" />
<vehicle type="noVar" depart="193" id="SflowUD.29" route="route_SflowUD.29" />
<route id="route_SflowDU.29" edges="Din Uout" />
<vehicle type="noVar" depart="193" id="SflowDU.29" route="route_SflowDU.29" />
<route id="route_SflowLR.46" edges="Lin Rout" />
<vehicle type="noVar" depart="194" id="SflowLR.46" route="route_SflowLR.46" />
<route id="route_SflowRL.46" edges="Rin Lout" />
<vehicle type="noVar" depart="194" id="SflowRL.46" route="route_SflowRL.46" />
<route id="route_SflowLR.47" edges="Lin Rout" />
<vehicle type="noVar" depart="198" id="SflowLR.47" route="route_SflowLR.47" />
<route id="route_SflowRL.47" edges="Rin Lout" />
<vehicle type="noVar" depart="198" id="SflowRL.47" route="route_SflowRL.47" />
<route id="route_SflowUD.30" edges="Uin Dout" />
<vehicle type="noVar" depart="200" id="SflowUD.30" route="route_SflowUD.30" />
<route id="route_SflowDU.30" edges="Din Uout" />
<vehicle type="noVar" depart="200" id="SflowDU.30" route="route_SflowDU.30" />
<route id="route_SflowLR.48" edges="Lin Rout" />
<vehicle type="noVar" depart="202" id="SflowLR.48" route="route_SflowLR.48" />
<route id="route_SflowRL.48" edges="Rin Lout" />
<vehicle type="noVar" depart="202" id="SflowRL.48" route="route_SflowRL.48" />
<route id="route_SflowLR.49" edges="Lin Rout" />
<vehicle type="noVar" depart="206" id="SflowLR.49" route="route_SflowLR.49" />
<route id="route_SflowRL.49" edges="Rin Lout" />
<vehicle type="noVar" depart="206" id="SflowRL.49" route="route_SflowRL.49" />
<route id="route_SflowUD.31" edges="Uin Dout" />
<vehicle type="noVar" depart="207" id="SflowUD.31" route="route_SflowUD.31" />
<route id="route_SflowDU.31" edges="Din Uout" />
<vehicle type="noVar" depart="207" id="SflowDU.31" route="route_SflowDU.31" />
<route id="route_SflowLR.50" edges="Lin Rout" />
<vehicle type="noVar" depart="210" id="SflowLR.50" route="route_SflowLR.50" />
<route id="route_SflowRL.50" edges="Rin Lout" />
<vehicle type="noVar" depart="210" id="SflowRL.50" route="route_SflowRL.50" />
<route id="route_SflowUD.32" edges="Uin Dout" />
<vehicle type="noVar" depart="214" id="SflowUD.32" route="route_SflowUD.32" />
<route id="route_SflowDU.32" edges="Din Uout" />
<vehicle type="noVar" depart="214" id="SflowDU.32" route="route_SflowDU.32" />
<route id="route_SflowLR.51" edges="Lin Rout" />
<vehicle type="noVar" depart="215" id="SflowLR.51" route="route_SflowLR.51" />
<route id="route_SflowRL.51" edges="Rin Lout" />
<vehicle type="noVar" depart="215" id="SflowRL.51" route="route_SflowRL.51" />
<route id="route_SflowLR.52" edges="Lin Rout" />
<vehicle type="noVar" depart="219" id="SflowLR.52" route="route_SflowLR.52" />
<route id="route_SflowRL.52" edges="Rin Lout" />
<vehicle type="noVar" depart="219" id="SflowRL.52" route="route_SflowRL.52" />
<route id="route_SflowUD.33" edges="Uin Dout" />
<vehicle type="noVar" depart="220" id="SflowUD.33" route="route_SflowUD.33" />
<route id="route_SflowDU.33" edges="Din Uout" />
<vehicle type="noVar" depart="220" id="SflowDU.33" route="route_SflowDU.33" />
<route id="route_SflowLR.53" edges="Lin Rout" />
<vehicle type="noVar" depart="223" id="SflowLR.53" route="route_SflowLR.53" />
<route id="route_SflowRL.53" edges="Rin Lout" />
<vehicle type="noVar" depart="223" id="SflowRL.53" route="route_SflowRL.53" />
<route id="route_SflowUD.34" edges="Uin Dout" />
<vehicle type="noVar" depart="227" id="SflowUD.34" route="route_SflowUD.34" />
<route id="route_SflowDU.34" edges="Din Uout" />
<vehicle type="noVar" depart="227" id="SflowDU.34" route="route_SflowDU.34" />
<route id="route_SflowLR.54" edges="Lin Rout" />
<vehicle type="noVar" depart="227" id="SflowLR.54" route="route_SflowLR.54" />
<route id="route_SflowRL.54" edges="Rin Lout" />
<vehicle type="noVar" depart="227" id="SflowRL.54" route="route_SflowRL.54" />
<route id="route_SflowLR.55" edges="Lin Rout" />
<vehicle type="noVar" depart="232" id="SflowLR.55" route="route_SflowLR.55" />
<route id="route_SflowRL.55" edges="Rin Lout" />
<vehicle type="noVar" depart="232" id="SflowRL.55" route="route_SflowRL.55" />
<route id="route_SflowUD.35" edges="Uin Dout" />
<vehicle type="noVar" depart="234" id="SflowUD.35" route="route_SflowUD.35" />
<route id="route_SflowDU.35" edges="Din Uout" />
<vehicle type="noVar" depart="234" id="SflowDU.35" route="route_SflowDU.35" />
<route id="route_SflowLR.56" edges="Lin Rout" />
<vehicle type="noVar" depart="236" id="SflowLR.56" route="route_SflowLR.56" />
<route id="route_SflowRL.56" edges="Rin Lout" />
<vehicle type="noVar" depart="236" id="SflowRL.56" route="route_SflowRL.56" />
<route id="route_SflowLR.57" edges="Lin Rout" />
<vehicle type="noVar" depart="240" id="SflowLR.57" route="route_SflowLR.57" />
<route id="route_SflowRL.57" edges="Rin Lout" />
<vehicle type="noVar" depart="240" id="SflowRL.57" route="route_SflowRL.57" />
<route id="route_SflowUD.36" edges="Uin Dout" />
<vehicle type="noVar" depart="240" id="SflowUD.36" route="route_SflowUD.36" />
<route id="route_SflowDU.36" edges="Din Uout" />
<vehicle type="noVar" depart="240" id="SflowDU.36" route="route_SflowDU.36" />
<route id="route_SflowLR.58" edges="Lin Rout" />
<vehicle type="noVar" depart="244" id="SflowLR.58" route="route_SflowLR.58" />
<route id="route_SflowRL.58" edges="Rin Lout" />
<vehicle type="noVar" depart="244" id="SflowRL.58" route="route_SflowRL.58" />
<route id="route_SflowUD.37" edges="Uin Dout" />
<vehicle type="noVar" depart="247" id="SflowUD.37" route="route_SflowUD.37" />
<route id="route_SflowDU.37" edges="Din Uout" />
<vehicle type="noVar" depart="247" id="SflowDU.37" route="route_SflowDU.37" />
<route id="route_SflowLR.59" edges="Lin Rout" />
<vehicle type="noVar" depart="248" id="SflowLR.59" route="route_SflowLR.59" />
<route id="route_SflowRL.59" edges="Rin Lout" />
<vehicle type="noVar" depart="248" id="SflowRL.59" route="route_SflowRL.59" />
<route id="route_SflowLR.60" edges="Lin Rout" />
<vehicle type="noVar" depart="253" id="SflowLR.60" route="route_SflowLR.60" />
<route id="route_SflowRL.60" edges="Rin Lout" />
<vehicle type="noVar" depart="253" id="SflowRL.60" route="route_SflowRL.60" />
<route id="route_SflowUD.38" edges="Uin Dout" />
<vehicle type="noVar" depart="254" id="SflowUD.38" route="route_SflowUD.38" />
<route id="route_SflowDU.38" edges="Din Uout" />
<vehicle type="noVar" depart="254" id="SflowDU.38" route="route_SflowDU.38" />
<route id="route_SflowLR.61" edges="Lin Rout" />
<vehicle type="noVar" depart="257" id="SflowLR.61" route="route_SflowLR.61" />
<route id="route_SflowRL.61" edges="Rin Lout" />
<vehicle type="noVar" depart="257" id="SflowRL.61" route="route_SflowRL.61" />
<route id="route_SflowUD.39" edges="Uin Dout" />
<vehicle type="noVar" depart="260" id="SflowUD.39" route="route_SflowUD.39" />
<route id="route_SflowDU.39" edges="Din Uout" />
<vehicle type="noVar" depart="260" id="SflowDU.39" route="route_SflowDU.39" />
<route id="route_SflowLR.62" edges="Lin Rout" />
<vehicle type="noVar" depart="261" id="SflowLR.62" route="route_SflowLR.62" />
<route id="route_SflowRL.62" edges="Rin Lout" />
<vehicle type="noVar" depart="261" id="SflowRL.62" route="route_SflowRL.62" />
<route id="route_SflowLR.63" edges="Lin Rout" />
<vehicle type="noVar" depart="265" id="SflowLR.63" route="route_SflowLR.63" />
<route id="route_SflowRL.63" edges="Rin Lout" />
<vehicle type="noVar" depart="265" id="SflowRL.63" route="route_SflowRL.63" />
<route id="route_SflowUD.40" edges="Uin Dout" />
<vehicle type="noVar" depart="267" id="SflowUD.40" route="route_SflowUD.40" />
<route id="route_SflowDU.40" edges="Din Uout" />
<vehicle type="noVar" depart="267" id="SflowDU.40" route="route_SflowDU.40" />
<route id="route_SflowLR.64" edges="Lin Rout" />
<vehicle type="noVar" depart="270" id="SflowLR.64" route="route_SflowLR.64" />
<route id="route_SflowRL.64" edges="Rin Lout" />
<vehicle type="noVar" depart="270" id="SflowRL.64" route="route_SflowRL.64" />
<route id="route_SflowUD.41" edges="Uin Dout" />
<vehicle type="noVar" depart="274" id="SflowUD.41" route="route_SflowUD.41" />
<route id="route_SflowDU.41" edges="Din Uout" />
<vehicle type="noVar" depart="274" id="SflowDU.41" route="route_SflowDU.41" />
<route id="route_SflowLR.65" edges="Lin Rout" />
<vehicle type="noVar" depart="274" id="SflowLR.65" route="route_SflowLR.65" />
<route id="route_SflowRL.65" edges="Rin Lout" />
<vehicle type="noVar" depart="274" id="SflowRL.65" route="route_SflowRL.65" />
<route id="route_SflowLR.66" edges="Lin Rout" />
<vehicle type="noVar" depart="278" id="SflowLR.66" route="route_SflowLR.66" />
<route id="route_SflowRL.66" edges="Rin Lout" />
<vehicle type="noVar" depart="278" id="SflowRL.66" route="route_SflowRL.66" />
<route id="route_SflowUD.42" edges="Uin Dout" />
<vehicle type="noVar" depart="280" id="SflowUD.42" route="route_SflowUD.42" />
<route id="route_SflowDU.42" edges="Din Uout" />
<vehicle type="noVar" depart="280" id="SflowDU.42" route="route_SflowDU.42" />
<route id="route_SflowLR.67" edges="Lin Rout" />
<vehicle type="noVar" depart="282" id="SflowLR.67" route="route_SflowLR.67" />
<route id="route_SflowRL.67" edges="Rin Lout" />
<vehicle type="noVar" depart="282" id="SflowRL.67" route="route_SflowRL.67" />
<route id="route_SflowLR.68" edges="Lin Rout" />
<vehicle type="noVar" depart="286" id="SflowLR.68" route="route_SflowLR.68" />
<route id="route_SflowRL.68" edges="Rin Lout" />
<vehicle type="noVar" depart="286" id="SflowRL.68" route="route_SflowRL.68" />
<route id="route_SflowUD.43" edges="Uin Dout" />
<vehicle type="noVar" depart="287" id="SflowUD.43" route="route_SflowUD.43" />
<route id="route_SflowDU.43" edges="Din Uout" />
<vehicle type="noVar" depart="287" id="SflowDU.43" route="route_SflowDU.43" />
<route id="route_SflowLR.69" edges="Lin Rout" />
<vehicle type="noVar" depart="291" id="SflowLR.69" route="route_SflowLR.69" />
<route id="route_SflowRL.69" edges="Rin Lout" />
<vehicle type="noVar" depart="291" id="SflowRL.69" route="route_SflowRL.69" />
<route id="route_SflowUD.44" edges="Uin Dout" />
<vehicle type="noVar" depart="294" id="SflowUD.44" route="route_SflowUD.44" />
<route id="route_SflowDU.44" edges="Din Uout" />
<vehicle type="noVar" depart="294" id="SflowDU.44" route="route_SflowDU.44" />
<route id="route_SflowLR.70" edges="Lin Rout" />
<vehicle type="noVar" depart="295" id="SflowLR.70" route="route_SflowLR.70" />
<route id="route_SflowRL.70" edges="Rin Lout" />
<vehicle type="noVar" depart="295" id="SflowRL.70" route="route_SflowRL.70" />
<route id="route_SflowLR.71" edges="Lin Rout" />
<vehicle type="noVar" depart="299" id="SflowLR.71" route="route_SflowLR.71" />
<route id="route_SflowRL.71" edges="Rin Lout" />
<vehicle type="noVar" depart="299" id="SflowRL.71" route="route_SflowRL.71" />