<?xml version="1.0" encoding="UTF-8"?>

<!-- generated on 2022-03-07 20:38:45 by Eclipse SUMO netedit Version 1.11.0
<configuration xmlns:xsi="http://www.w3.org/2001/XMLSchema-instance" xsi:noNamespaceSchemaLocation="http://sumo.dlr.de/xsd/netconvertConfiguration.xsd">

    <input>
        <sumo-net-file value="/Users/davidneiman/Documents/GitHub.nosync/traffic-routing/surtrac_test/intersection.net.xml"/>
    </input>

    <output>
        <output-file value="/Users/davidneiman/Documents/GitHub.nosync/traffic-routing/surtrac_test/intersection.net.xml"/>
    </output>

    <processing>
        <geometry.min-radius.fix.railways value="false"/>
        <geometry.max-grade.fix value="false"/>
        <offset.disable-normalization value="true"/>
        <lefthand value="false"/>
    </processing>

    <junctions>
        <no-turnarounds value="true"/>
        <junctions.corner-detail value="5"/>
        <junctions.limit-turn-speed value="5.5"/>
        <rectangular-lane-cut value="false"/>
    </junctions>

    <pedestrian>
        <walkingareas value="false"/>
    </pedestrian>

    <report>
        <aggregate-warnings value="5"/>
    </report>

</configuration>
-->

<net version="1.9" junctionCornerDetail="5" limitTurnSpeed="5.50" xmlns:xsi="http://www.w3.org/2001/XMLSchema-instance" xsi:noNamespaceSchemaLocation="http://sumo.dlr.de/xsd/net_file.xsd">

    <location netOffset="0.00,0.00" convBoundary="-500.00,-500.00,500.00,500.00" origBoundary="-10000000000.00,-10000000000.00,10000000000.00,10000000000.00" projParameter="!"/>

    <edge id=":J1_0" function="internal">
        <lane id=":J1_0_0" index="0" speed="7.33" length="11.73" shape="-4.80,10.40 -5.15,6.55 -6.20,3.80 -7.95,2.15 -10.40,1.60"/>
    </edge>
    <edge id=":J1_1" function="internal">
        <lane id=":J1_1_0" index="0" speed="13.89" length="21.09" shape="-4.80,10.40 -4.30,3.63 -3.20,-1.88 -2.10,-6.45 -1.60,-10.40"/>
    </edge>
    <edge id=":J1_2" function="internal">
        <lane id=":J1_2_0" index="0" speed="9.26" length="10.03" shape="-1.60,10.40 -0.85,5.15 1.40,1.40 1.70,1.22"/>
    </edge>
    <edge id=":J1_12" function="internal">
        <lane id=":J1_12_0" index="0" speed="9.26" length="9.33" shape="1.70,1.22 5.15,-0.85 10.40,-1.60"/>
    </edge>
    <edge id=":J1_3" function="internal">
        <lane id=":J1_3_0" index="0" speed="7.33" length="11.73" shape="10.40,4.80 6.55,5.15 3.80,6.20 2.15,7.95 1.60,10.40"/>
    </edge>
    <edge id=":J1_4" function="internal">
        <lane id=":J1_4_0" index="0" speed="13.89" length="21.09" shape="10.40,4.80 3.63,4.30 -1.88,3.20 -6.45,2.10 -10.40,1.60"/>
    </edge>
    <edge id=":J1_5" function="internal">
        <lane id=":J1_5_0" index="0" speed="9.26" length="10.03" shape="10.40,1.60 5.15,0.85 1.40,-1.40 1.22,-1.70"/>
    </edge>
    <edge id=":J1_13" function="internal">
        <lane id=":J1_13_0" index="0" speed="9.26" length="9.33" shape="1.22,-1.70 -0.85,-5.15 -1.60,-10.40"/>
    </edge>
    <edge id=":J1_6" function="internal">
        <lane id=":J1_6_0" index="0" speed="7.33" length="11.73" shape="4.80,-10.40 5.15,-6.55 6.20,-3.80 7.95,-2.15 10.40,-1.60"/>
    </edge>
    <edge id=":J1_7" function="internal">
        <lane id=":J1_7_0" index="0" speed="13.89" length="21.09" shape="4.80,-10.40 4.30,-3.63 3.20,1.88 2.10,6.45 1.60,10.40"/>
    </edge>
    <edge id=":J1_8" function="internal">
        <lane id=":J1_8_0" index="0" speed="9.26" length="10.03" shape="1.60,-10.40 0.85,-5.15 -1.40,-1.40 -1.70,-1.22"/>
    </edge>
    <edge id=":J1_14" function="internal">
        <lane id=":J1_14_0" index="0" speed="9.26" length="9.33" shape="-1.70,-1.22 -5.15,0.85 -10.40,1.60"/>
    </edge>
    <edge id=":J1_9" function="internal">
        <lane id=":J1_9_0" index="0" speed="7.33" length="11.73" shape="-10.40,-4.80 -6.55,-5.15 -3.80,-6.20 -2.15,-7.95 -1.60,-10.40"/>
    </edge>
    <edge id=":J1_10" function="internal">
        <lane id=":J1_10_0" index="0" speed="13.89" length="21.09" shape="-10.40,-4.80 -3.63,-4.30 1.88,-3.20 6.45,-2.10 10.40,-1.60"/>
    </edge>
    <edge id=":J1_11" function="internal">
        <lane id=":J1_11_0" index="0" speed="9.26" length="10.03" shape="-10.40,-1.60 -5.15,-0.85 -1.40,1.40 -1.22,1.70"/>
    </edge>
    <edge id=":J1_15" function="internal">
        <lane id=":J1_15_0" index="0" speed="9.26" length="9.33" shape="-1.22,1.70 0.85,5.15 1.60,10.40"/>
    </edge>

    <edge id="Din" from="J3" to="J1" priority="-1">
        <lane id="Din_0" index="0" speed="13.89" length="489.60" shape="4.80,-500.00 4.80,-10.40"/>
        <lane id="Din_1" index="1" speed="13.89" length="489.60" shape="1.60,-500.00 1.60,-10.40"/>
    </edge>
    <edge id="Dout" from="J1" to="J3" priority="-1">
        <lane id="Dout_0" index="0" speed="13.89" length="489.60" shape="-1.60,-10.40 -1.60,-500.00"/>
    </edge>
    <edge id="Lin" from="J0" to="J1" priority="-1">
        <lane id="Lin_0" index="0" speed="13.89" length="489.60" shape="-500.00,-4.80 -10.40,-4.80"/>
        <lane id="Lin_1" index="1" speed="13.89" length="489.60" shape="-500.00,-1.60 -10.40,-1.60"/>
    </edge>
    <edge id="Lout" from="J1" to="J0" priority="-1">
        <lane id="Lout_0" index="0" speed="13.89" length="489.60" shape="-10.40,1.60 -500.00,1.60"/>
    </edge>
    <edge id="Rin" from="J2" to="J1" priority="-1">
        <lane id="Rin_0" index="0" speed="13.89" length="489.60" shape="500.00,4.80 10.40,4.80"/>
        <lane id="Rin_1" index="1" speed="13.89" length="489.60" shape="500.00,1.60 10.40,1.60"/>
    </edge>
    <edge id="Rout" from="J1" to="J2" priority="-1">
        <lane id="Rout_0" index="0" speed="13.89" length="489.60" shape="10.40,-1.60 500.00,-1.60"/>
    </edge>
    <edge id="Uin" from="J4" to="J1" priority="-1">
        <lane id="Uin_0" index="0" speed="13.89" length="489.60" shape="-4.80,500.00 -4.80,10.40"/>
        <lane id="Uin_1" index="1" speed="13.89" length="489.60" shape="-1.60,500.00 -1.60,10.40"/>
    </edge>
    <edge id="Uout" from="J1" to="J4" priority="-1">
        <lane id="Uout_0" index="0" speed="13.89" length="489.60" shape="1.60,10.40 1.60,500.00"/>
    </edge>

    <tlLogic id="J1" type="static" programID="0" offset="0">
        <phase duration="30" minDur = "5" maxDur = "120" state="GGgrrrGGgrrr"/>
        <phase duration="5"  minDur = "5" maxDur = "120" state="yyyrrryyyrrr"/>
        <phase duration="30" minDur = "5" maxDur = "120" state="rrrGGgrrrGGg"/>
        <phase duration="5"  minDur = "5" maxDur = "120" state="rrryyyrrryyy"/>
    </tlLogic>

    <junction id="J0" type="dead_end" x="-500.00" y="0.00" incLanes="Lout_0" intLanes="" shape="-500.00,0.00 -500.00,3.20 -500.00,0.00"/>
    <junction id="J1" type="traffic_light" x="0.00" y="0.00" incLanes="Uin_0 Uin_1 Rin_0 Rin_1 Din_0 Din_1 Lin_0 Lin_1" intLanes=":J1_0_0 :J1_1_0 :J1_12_0 :J1_3_0 :J1_4_0 :J1_13_0 :J1_6_0 :J1_7_0 :J1_14_0 :J1_9_0 :J1_10_0 :J1_15_0" shape="-6.40,10.40 3.20,10.40 4.00,8.18 5.00,7.40 6.40,6.84 8.20,6.51 10.40,6.40 10.40,-3.20 8.18,-4.00 7.40,-5.00 6.84,-6.40 6.51,-8.20 6.40,-10.40 -3.20,-10.40 -4.00,-8.18 -5.00,-7.40 -6.40,-6.84 -8.20,-6.51 -10.40,-6.40 -10.40,3.20 -8.18,4.00 -7.40,5.00 -6.84,6.40 -6.51,8.20">
        <request index="0"  response="000000000000" foes="000100010000" cont="0"/>
        <request index="1"  response="100000100000" foes="111100110000" cont="0"/>
        <request index="2"  response="100011100000" foes="110011110000" cont="1"/>
        <request index="3"  response="000010000000" foes="100010000000" cont="0"/>
        <request index="4"  response="000110000111" foes="100110000111" cont="0"/>
        <request index="5"  response="011110000110" foes="011110000110" cont="1"/>
        <request index="6"  response="000000000000" foes="010000000100" cont="0"/>
        <request index="7"  response="100000100000" foes="110000111100" cont="0"/>
        <request index="8"  response="100000100011" foes="110000110011" cont="1"/>
        <request index="9"  response="000000000010" foes="000000100010" cont="0"/>
        <request index="10" response="000111000110" foes="000111100110" cont="0"/>
        <request index="11" response="000110011110" foes="000110011110" cont="1"/>
    </junction>
    <junction id="J2" type="dead_end" x="500.00" y="0.00" incLanes="Rout_0" intLanes="" shape="500.00,0.00 500.00,-3.20 500.00,0.00"/>
    <junction id="J3" type="dead_end" x="0.00" y="-500.00" incLanes="Dout_0" intLanes="" shape="0.00,-500.00 -3.20,-500.00 0.00,-500.00"/>
    <junction id="J4" type="dead_end" x="0.00" y="500.00" incLanes="Uout_0" intLanes="" shape="0.00,500.00 3.20,500.00 0.00,500.00"/>

    <junction id=":J1_12_0" type="internal" x="1.70" y="1.22" incLanes=":J1_2_0 Din_0" intLanes=":J1_4_0 :J1_5_0 :J1_6_0 :J1_7_0 :J1_10_0 :J1_11_0"/>
    <junction id=":J1_13_0" type="internal" x="1.22" y="-1.70" incLanes=":J1_5_0 Lin_0" intLanes=":J1_1_0 :J1_2_0 :J1_7_0 :J1_8_0 :J1_9_0 :J1_10_0"/>
    <junction id=":J1_14_0" type="internal" x="-1.70" y="-1.22" incLanes=":J1_8_0 Uin_0" intLanes=":J1_0_0 :J1_1_0 :J1_4_0 :J1_5_0 :J1_10_0 :J1_11_0"/>
    <junction id=":J1_15_0" type="internal" x="-1.22" y="1.70" incLanes=":J1_11_0 Rin_0" intLanes=":J1_1_0 :J1_2_0 :J1_3_0 :J1_4_0 :J1_7_0 :J1_8_0"/>

    <connection from="Din" to="Rout" fromLane="0" toLane="0" via=":J1_6_0" tl="J1" linkIndex="6" dir="r" state="O"/>
    <connection from="Din" to="Uout" fromLane="0" toLane="0" via=":J1_7_0" tl="J1" linkIndex="7" dir="s" state="O"/>
    <connection from="Din" to="Lout" fromLane="1" toLane="0" via=":J1_8_0" tl="J1" linkIndex="8" dir="l" state="o"/>
    <connection from="Lin" to="Dout" fromLane="0" toLane="0" via=":J1_9_0" tl="J1" linkIndex="9" dir="r" state="o"/>
    <connection from="Lin" to="Rout" fromLane="0" toLane="0" via=":J1_10_0" tl="J1" linkIndex="10" dir="s" state="o"/>
    <connection from="Lin" to="Uout" fromLane="1" toLane="0" via=":J1_11_0" tl="J1" linkIndex="11" dir="l" state="o"/>
    <connection from="Rin" to="Uout" fromLane="0" toLane="0" via=":J1_3_0" tl="J1" linkIndex="3" dir="r" state="o"/>
    <connection from="Rin" to="Lout" fromLane="0" toLane="0" via=":J1_4_0" tl="J1" linkIndex="4" dir="s" state="o"/>
    <connection from="Rin" to="Dout" fromLane="1" toLane="0" via=":J1_5_0" tl="J1" linkIndex="5" dir="l" state="o"/>
    <connection from="Uin" to="Lout" fromLane="0" toLane="0" via=":J1_0_0" tl="J1" linkIndex="0" dir="r" state="O"/>
    <connection from="Uin" to="Dout" fromLane="0" toLane="0" via=":J1_1_0" tl="J1" linkIndex="1" dir="s" state="O"/>
    <connection from="Uin" to="Rout" fromLane="1" toLane="0" via=":J1_2_0" tl="J1" linkIndex="2" dir="l" state="o"/>

    <connection from=":J1_0" to="Lout" fromLane="0" toLane="0" dir="r" state="M"/>
    <connection from=":J1_1" to="Dout" fromLane="0" toLane="0" dir="s" state="M"/>
    <connection from=":J1_2" to="Rout" fromLane="0" toLane="0" via=":J1_12_0" dir="l" state="m"/>
    <connection from=":J1_12" to="Rout" fromLane="0" toLane="0" dir="l" state="M"/>
    <connection from=":J1_3" to="Uout" fromLane="0" toLane="0" dir="r" state="M"/>
    <connection from=":J1_4" to="Lout" fromLane="0" toLane="0" dir="s" state="M"/>
    <connection from=":J1_5" to="Dout" fromLane="0" toLane="0" via=":J1_13_0" dir="l" state="m"/>
    <connection from=":J1_13" to="Dout" fromLane="0" toLane="0" dir="l" state="M"/>
    <connection from=":J1_6" to="Rout" fromLane="0" toLane="0" dir="r" state="M"/>
    <connection from=":J1_7" to="Uout" fromLane="0" toLane="0" dir="s" state="M"/>
    <connection from=":J1_8" to="Lout" fromLane="0" toLane="0" via=":J1_14_0" dir="l" state="m"/>
    <connection from=":J1_14" to="Lout" fromLane="0" toLane="0" dir="l" state="M"/>
    <connection from=":J1_9" to="Dout" fromLane="0" toLane="0" dir="r" state="M"/>
    <connection from=":J1_10" to="Rout" fromLane="0" toLane="0" dir="s" state="M"/>
    <connection from=":J1_11" to="Uout" fromLane="0" toLane="0" via=":J1_15_0" dir="l" state="m"/>
    <connection from=":J1_15" to="Uout" fromLane="0" toLane="0" dir="l" state="M"/>

</net>
