<?xml version="1.0" encoding="UTF-8"?>
<routes xmlns:xsi="http://www.w3.org/2001/XMLSchema-instance" xsi:noNamespaceSchemaLocation="http://sumo.dlr.de/xsd/routes_file.xsd">

<vType id="noVar" speedFactor="1.0" speedDev="0.0"/>
<trip type="noVar" depart="0" id="SflowLR.0" from="Lin" to="Rout"/>
<trip type="noVar" depart="0" id="SflowRL.0" from="Rin" to="Lout"/>
<trip type="noVar" depart="0" id="SflowUD.0" from="Uin" to="Dout"/>
<trip type="noVar" depart="0" id="SflowDU.0" from="Din" to="Uout"/>
<trip type="noVar" depart="5" id="SflowUD.1" from="Uin" to="Dout"/>
<trip type="noVar" depart="5" id="SflowDU.1" from="Din" to="Uout"/>
<trip type="noVar" depart="10" id="SflowUD.2" from="Uin" to="Dout"/>
<trip type="noVar" depart="10" id="SflowDU.2" from="Din" to="Uout"/>
<trip type="noVar" depart="10" id="SflowLR.1" from="Lin" to="Rout"/>
<trip type="noVar" depart="10" id="SflowRL.1" from="Rin" to="Lout"/>
<trip type="noVar" depart="15" id="SflowUD.3" from="Uin" to="Dout"/>
<trip type="noVar" depart="15" id="SflowDU.3" from="Din" to="Uout"/>
<trip type="noVar" depart="21" id="SflowUD.4" from="Uin" to="Dout"/>
<trip type="noVar" depart="21" id="SflowDU.4" from="Din" to="Uout"/>
<trip type="noVar" depart="21" id="SflowLR.2" from="Lin" to="Rout"/>
<trip type="noVar" depart="21" id="SflowRL.2" from="Rin" to="Lout"/>
<trip type="noVar" depart="26" id="SflowUD.5" from="Uin" to="Dout"/>
<trip type="noVar" depart="26" id="SflowDU.5" from="Din" to="Uout"/>
<trip type="noVar" depart="31" id="SflowUD.6" from="Uin" to="Dout"/>
<trip type="noVar" depart="31" id="SflowDU.6" from="Din" to="Uout"/>
<trip type="noVar" depart="31" id="SflowLR.3" from="Lin" to="Rout"/>
<trip type="noVar" depart="31" id="SflowRL.3" from="Rin" to="Lout"/>
<trip type="noVar" depart="36" id="SflowUD.7" from="Uin" to="Dout"/>
<trip type="noVar" depart="36" id="SflowDU.7" from="Din" to="Uout"/>
<trip type="noVar" depart="42" id="SflowUD.8" from="Uin" to="Dout"/>
<trip type="noVar" depart="42" id="SflowDU.8" from="Din" to="Uout"/>
<trip type="noVar" depart="42" id="SflowLR.4" from="Lin" to="Rout"/>
<trip type="noVar" depart="42" id="SflowRL.4" from="Rin" to="Lout"/>
<trip type="noVar" depart="47" id="SflowUD.9" from="Uin" to="Dout"/>
<trip type="noVar" depart="47" id="SflowDU.9" from="Din" to="Uout"/>
<trip type="noVar" depart="52" id="SflowUD.10" from="Uin" to="Dout"/>
<trip type="noVar" depart="52" id="SflowDU.10" from="Din" to="Uout"/>
<trip type="noVar" depart="52" id="SflowLR.5" from="Lin" to="Rout"/>
<trip type="noVar" depart="52" id="SflowRL.5" from="Rin" to="Lout"/>
<trip type="noVar" depart="57" id="SflowUD.11" from="Uin" to="Dout"/>
<trip type="noVar" depart="57" id="SflowDU.11" from="Din" to="Uout"/>
<trip type="noVar" depart="63" id="SflowUD.12" from="Uin" to="Dout"/>
<trip type="noVar" depart="63" id="SflowDU.12" from="Din" to="Uout"/>
<trip type="noVar" depart="63" id="SflowLR.6" from="Lin" to="Rout"/>
<trip type="noVar" depart="63" id="SflowRL.6" from="Rin" to="Lout"/>
<trip type="noVar" depart="68" id="SflowUD.13" from="Uin" to="Dout"/>
<trip type="noVar" depart="68" id="SflowDU.13" from="Din" to="Uout"/>
<trip type="noVar" depart="73" id="SflowUD.14" from="Uin" to="Dout"/>
<trip type="noVar" depart="73" id="SflowDU.14" from="Din" to="Uout"/>
<trip type="noVar" depart="73" id="SflowLR.7" from="Lin" to="Rout"/>
<trip type="noVar" depart="73" id="SflowRL.7" from="Rin" to="Lout"/>
<trip type="noVar" depart="78" id="SflowUD.15" from="Uin" to="Dout"/>
<trip type="noVar" depart="78" id="SflowDU.15" from="Din" to="Uout"/>
<trip type="noVar" depart="84" id="SflowUD.16" from="Uin" to="Dout"/>
<trip type="noVar" depart="84" id="SflowDU.16" from="Din" to="Uout"/>
<trip type="noVar" depart="84" id="SflowLR.8" from="Lin" to="Rout"/>
<trip type="noVar" depart="84" id="SflowRL.8" from="Rin" to="Lout"/>
<trip type="noVar" depart="89" id="SflowUD.17" from="Uin" to="Dout"/>
<trip type="noVar" depart="89" id="SflowDU.17" from="Din" to="Uout"/>
<trip type="noVar" depart="94" id="SflowUD.18" from="Uin" to="Dout"/>
<trip type="noVar" depart="94" id="SflowDU.18" from="Din" to="Uout"/>
<trip type="noVar" depart="94" id="SflowLR.9" from="Lin" to="Rout"/>
<trip type="noVar" depart="94" id="SflowRL.9" from="Rin" to="Lout"/>
<trip type="noVar" depart="100" id="SflowUD.19" from="Uin" to="Dout"/>
<trip type="noVar" depart="100" id="SflowDU.19" from="Din" to="Uout"/>
<trip type="noVar" depart="105" id="SflowUD.20" from="Uin" to="Dout"/>
<trip type="noVar" depart="105" id="SflowDU.20" from="Din" to="Uout"/>
<trip type="noVar" depart="105" id="SflowLR.10" from="Lin" to="Rout"/>
<trip type="noVar" depart="105" id="SflowRL.10" from="Rin" to="Lout"/>
<trip type="noVar" depart="110" id="SflowUD.21" from="Uin" to="Dout"/>
<trip type="noVar" depart="110" id="SflowDU.21" from="Din" to="Uout"/>
<trip type="noVar" depart="115" id="SflowUD.22" from="Uin" to="Dout"/>
<trip type="noVar" depart="115" id="SflowDU.22" from="Din" to="Uout"/>
<trip type="noVar" depart="116" id="SflowLR.11" from="Lin" to="Rout"/>
<trip type="noVar" depart="116" id="SflowRL.11" from="Rin" to="Lout"/>
<trip type="noVar" depart="121" id="SflowUD.23" from="Uin" to="Dout"/>
<trip type="noVar" depart="121" id="SflowDU.23" from="Din" to="Uout"/>
<trip type="noVar" depart="126" id="SflowUD.24" from="Uin" to="Dout"/>
<trip type="noVar" depart="126" id="SflowDU.24" from="Din" to="Uout"/>
<trip type="noVar" depart="126" id="SflowLR.12" from="Lin" to="Rout"/>
<trip type="noVar" depart="126" id="SflowRL.12" from="Rin" to="Lout"/>
<trip type="noVar" depart="131" id="SflowUD.25" from="Uin" to="Dout"/>
<trip type="noVar" depart="131" id="SflowDU.25" from="Din" to="Uout"/>
<trip type="noVar" depart="136" id="SflowUD.26" from="Uin" to="Dout"/>
<trip type="noVar" depart="136" id="SflowDU.26" from="Din" to="Uout"/>
<trip type="noVar" depart="137" id="SflowLR.13" from="Lin" to="Rout"/>
<trip type="noVar" depart="137" id="SflowRL.13" from="Rin" to="Lout"/>
<trip type="noVar" depart="142" id="SflowUD.27" from="Uin" to="Dout"/>
<trip type="noVar" depart="142" id="SflowDU.27" from="Din" to="Uout"/>
<trip type="noVar" depart="147" id="SflowUD.28" from="Uin" to="Dout"/>
<trip type="noVar" depart="147" id="SflowDU.28" from="Din" to="Uout"/>
<trip type="noVar" depart="147" id="SflowLR.14" from="Lin" to="Rout"/>
<trip type="noVar" depart="147" id="SflowRL.14" from="Rin" to="Lout"/>
<trip type="noVar" depart="152" id="SflowUD.29" from="Uin" to="Dout"/>
<trip type="noVar" depart="152" id="SflowDU.29" from="Din" to="Uout"/>
<trip type="noVar" depart="157" id="SflowUD.30" from="Uin" to="Dout"/>
<trip type="noVar" depart="157" id="SflowDU.30" from="Din" to="Uout"/>
<trip type="noVar" depart="158" id="SflowLR.15" from="Lin" to="Rout"/>
<trip type="noVar" depart="158" id="SflowRL.15" from="Rin" to="Lout"/>
<trip type="noVar" depart="163" id="SflowUD.31" from="Uin" to="Dout"/>
<trip type="noVar" depart="163" id="SflowDU.31" from="Din" to="Uout"/>
<trip type="noVar" depart="168" id="SflowUD.32" from="Uin" to="Dout"/>
<trip type="noVar" depart="168" id="SflowDU.32" from="Din" to="Uout"/>
<trip type="noVar" depart="168" id="SflowLR.16" from="Lin" to="Rout"/>
<trip type="noVar" depart="168" id="SflowRL.16" from="Rin" to="Lout"/>
<trip type="noVar" depart="173" id="SflowUD.33" from="Uin" to="Dout"/>
<trip type="noVar" depart="173" id="SflowDU.33" from="Din" to="Uout"/>
<trip type="noVar" depart="178" id="SflowUD.34" from="Uin" to="Dout"/>
<trip type="noVar" depart="178" id="SflowDU.34" from="Din" to="Uout"/>
<trip type="noVar" depart="179" id="SflowLR.17" from="Lin" to="Rout"/>
<trip type="noVar" depart="179" id="SflowRL.17" from="Rin" to="Lout"/>
<trip type="noVar" depart="184" id="SflowUD.35" from="Uin" to="Dout"/>
<trip type="noVar" depart="184" id="SflowDU.35" from="Din" to="Uout"/>
<trip type="noVar" depart="189" id="SflowUD.36" from="Uin" to="Dout"/>
<trip type="noVar" depart="189" id="SflowDU.36" from="Din" to="Uout"/>
<trip type="noVar" depart="189" id="SflowLR.18" from="Lin" to="Rout"/>
<trip type="noVar" depart="189" id="SflowRL.18" from="Rin" to="Lout"/>
<trip type="noVar" depart="194" id="SflowUD.37" from="Uin" to="Dout"/>
<trip type="noVar" depart="194" id="SflowDU.37" from="Din" to="Uout"/>
<trip type="noVar" depart="200" id="SflowUD.38" from="Uin" to="Dout"/>
<trip type="noVar" depart="200" id="SflowDU.38" from="Din" to="Uout"/>
<trip type="noVar" depart="200" id="SflowLR.19" from="Lin" to="Rout"/>
<trip type="noVar" depart="200" id="SflowRL.19" from="Rin" to="Lout"/>
<trip type="noVar" depart="205" id="SflowUD.39" from="Uin" to="Dout"/>
<trip type="noVar" depart="205" id="SflowDU.39" from="Din" to="Uout"/>
<trip type="noVar" depart="210" id="SflowUD.40" from="Uin" to="Dout"/>
<trip type="noVar" depart="210" id="SflowDU.40" from="Din" to="Uout"/>
<trip type="noVar" depart="211" id="SflowLR.20" from="Lin" to="Rout"/>
<trip type="noVar" depart="211" id="SflowRL.20" from="Rin" to="Lout"/>
<trip type="noVar" depart="215" id="SflowUD.41" from="Uin" to="Dout"/>
<trip type="noVar" depart="215" id="SflowDU.41" from="Din" to="Uout"/>
<trip type="noVar" depart="221" id="SflowUD.42" from="Uin" to="Dout"/>
<trip type="noVar" depart="221" id="SflowDU.42" from="Din" to="Uout"/>
<trip type="noVar" depart="221" id="SflowLR.21" from="Lin" to="Rout"/>
<trip type="noVar" depart="221" id="SflowRL.21" from="Rin" to="Lout"/>
<trip type="noVar" depart="226" id="SflowUD.43" from="Uin" to="Dout"/>
<trip type="noVar" depart="226" id="SflowDU.43" from="Din" to="Uout"/>
<trip type="noVar" depart="231" id="SflowUD.44" from="Uin" to="Dout"/>
<trip type="noVar" depart="231" id="SflowDU.44" from="Din" to="Uout"/>
<trip type="noVar" depart="232" id="SflowLR.22" from="Lin" to="Rout"/>
<trip type="noVar" depart="232" id="SflowRL.22" from="Rin" to="Lout"/>
<trip type="noVar" depart="236" id="SflowUD.45" from="Uin" to="Dout"/>
<trip type="noVar" depart="236" id="SflowDU.45" from="Din" to="Uout"/>
<trip type="noVar" depart="242" id="SflowUD.46" from="Uin" to="Dout"/>
<trip type="noVar" depart="242" id="SflowDU.46" from="Din" to="Uout"/>
<trip type="noVar" depart="242" id="SflowLR.23" from="Lin" to="Rout"/>
<trip type="noVar" depart="242" id="SflowRL.23" from="Rin" to="Lout"/>
<trip type="noVar" depart="247" id="SflowUD.47" from="Uin" to="Dout"/>
<trip type="noVar" depart="247" id="SflowDU.47" from="Din" to="Uout"/>
<trip type="noVar" depart="252" id="SflowUD.48" from="Uin" to="Dout"/>
<trip type="noVar" depart="252" id="SflowDU.48" from="Din" to="Uout"/>
<trip type="noVar" depart="253" id="SflowLR.24" from="Lin" to="Rout"/>
<trip type="noVar" depart="253" id="SflowRL.24" from="Rin" to="Lout"/>
<trip type="noVar" depart="257" id="SflowUD.49" from="Uin" to="Dout"/>
<trip type="noVar" depart="257" id="SflowDU.49" from="Din" to="Uout"/>
<trip type="noVar" depart="263" id="SflowUD.50" from="Uin" to="Dout"/>
<trip type="noVar" depart="263" id="SflowDU.50" from="Din" to="Uout"/>
<trip type="noVar" depart="263" id="SflowLR.25" from="Lin" to="Rout"/>
<trip type="noVar" depart="263" id="SflowRL.25" from="Rin" to="Lout"/>
<trip type="noVar" depart="268" id="SflowUD.51" from="Uin" to="Dout"/>
<trip type="noVar" depart="268" id="SflowDU.51" from="Din" to="Uout"/>
<trip type="noVar" depart="273" id="SflowUD.52" from="Uin" to="Dout"/>
<trip type="noVar" depart="273" id="SflowDU.52" from="Din" to="Uout"/>
<trip type="noVar" depart="274" id="SflowLR.26" from="Lin" to="Rout"/>
<trip type="noVar" depart="274" id="SflowRL.26" from="Rin" to="Lout"/>
<trip type="noVar" depart="278" id="SflowUD.53" from="Uin" to="Dout"/>
<trip type="noVar" depart="278" id="SflowDU.53" from="Din" to="Uout"/>
<trip type="noVar" depart="284" id="SflowUD.54" from="Uin" to="Dout"/>
<trip type="noVar" depart="284" id="SflowDU.54" from="Din" to="Uout"/>
<trip type="noVar" depart="284" id="SflowLR.27" from="Lin" to="Rout"/>
<trip type="noVar" depart="284" id="SflowRL.27" from="Rin" to="Lout"/>
<trip type="noVar" depart="289" id="SflowUD.55" from="Uin" to="Dout"/>
<trip type="noVar" depart="289" id="SflowDU.55" from="Din" to="Uout"/>
<trip type="noVar" depart="294" id="SflowUD.56" from="Uin" to="Dout"/>
<trip type="noVar" depart="294" id="SflowDU.56" from="Din" to="Uout"/>
<trip type="noVar" depart="295" id="SflowLR.28" from="Lin" to="Rout"/>
<trip type="noVar" depart="295" id="SflowRL.28" from="Rin" to="Lout"/>
<trip type="noVar" depart="300" id="SflowUD.57" from="Uin" to="Dout"/>
<trip type="noVar" depart="300" id="SflowDU.57" from="Din" to="Uout"/>
<trip type="noVar" depart="305" id="SflowUD.58" from="Uin" to="Dout"/>
<trip type="noVar" depart="305" id="SflowDU.58" from="Din" to="Uout"/>
<trip type="noVar" depart="306" id="SflowLR.29" from="Lin" to="Rout"/>
<trip type="noVar" depart="306" id="SflowRL.29" from="Rin" to="Lout"/>
<trip type="noVar" depart="310" id="SflowUD.59" from="Uin" to="Dout"/>
<trip type="noVar" depart="310" id="SflowDU.59" from="Din" to="Uout"/>
<trip type="noVar" depart="315" id="SflowUD.60" from="Uin" to="Dout"/>
<trip type="noVar" depart="315" id="SflowDU.60" from="Din" to="Uout"/>
<trip type="noVar" depart="316" id="SflowLR.30" from="Lin" to="Rout"/>
<trip type="noVar" depart="316" id="SflowRL.30" from="Rin" to="Lout"/>
<trip type="noVar" depart="321" id="SflowUD.61" from="Uin" to="Dout"/>
<trip type="noVar" depart="321" id="SflowDU.61" from="Din" to="Uout"/>
<trip type="noVar" depart="326" id="SflowUD.62" from="Uin" to="Dout"/>
<trip type="noVar" depart="326" id="SflowDU.62" from="Din" to="Uout"/>
<trip type="noVar" depart="327" id="SflowLR.31" from="Lin" to="Rout"/>
<trip type="noVar" depart="327" id="SflowRL.31" from="Rin" to="Lout"/>
<trip type="noVar" depart="331" id="SflowUD.63" from="Uin" to="Dout"/>
<trip type="noVar" depart="331" id="SflowDU.63" from="Din" to="Uout"/>
<trip type="noVar" depart="336" id="SflowUD.64" from="Uin" to="Dout"/>
<trip type="noVar" depart="336" id="SflowDU.64" from="Din" to="Uout"/>
<trip type="noVar" depart="337" id="SflowLR.32" from="Lin" to="Rout"/>
<trip type="noVar" depart="337" id="SflowRL.32" from="Rin" to="Lout"/>
<trip type="noVar" depart="342" id="SflowUD.65" from="Uin" to="Dout"/>
<trip type="noVar" depart="342" id="SflowDU.65" from="Din" to="Uout"/>
<trip type="noVar" depart="347" id="SflowUD.66" from="Uin" to="Dout"/>
<trip type="noVar" depart="347" id="SflowDU.66" from="Din" to="Uout"/>
<trip type="noVar" depart="348" id="SflowLR.33" from="Lin" to="Rout"/>
<trip type="noVar" depart="348" id="SflowRL.33" from="Rin" to="Lout"/>
<trip type="noVar" depart="352" id="SflowUD.67" from="Uin" to="Dout"/>
<trip type="noVar" depart="352" id="SflowDU.67" from="Din" to="Uout"/>
<trip type="noVar" depart="357" id="SflowUD.68" from="Uin" to="Dout"/>
<trip type="noVar" depart="357" id="SflowDU.68" from="Din" to="Uout"/>
<trip type="noVar" depart="358" id="SflowLR.34" from="Lin" to="Rout"/>
<trip type="noVar" depart="358" id="SflowRL.34" from="Rin" to="Lout"/>
<trip type="noVar" depart="363" id="SflowUD.69" from="Uin" to="Dout"/>
<trip type="noVar" depart="363" id="SflowDU.69" from="Din" to="Uout"/>
<trip type="noVar" depart="368" id="SflowUD.70" from="Uin" to="Dout"/>
<trip type="noVar" depart="368" id="SflowDU.70" from="Din" to="Uout"/>
<trip type="noVar" depart="369" id="SflowLR.35" from="Lin" to="Rout"/>
<trip type="noVar" depart="369" id="SflowRL.35" from="Rin" to="Lout"/>
<trip type="noVar" depart="373" id="SflowUD.71" from="Uin" to="Dout"/>
<trip type="noVar" depart="373" id="SflowDU.71" from="Din" to="Uout"/>
<trip type="noVar" depart="378" id="SflowUD.72" from="Uin" to="Dout"/>
<trip type="noVar" depart="378" id="SflowDU.72" from="Din" to="Uout"/>
<trip type="noVar" depart="379" id="SflowLR.36" from="Lin" to="Rout"/>
<trip type="noVar" depart="379" id="SflowRL.36" from="Rin" to="Lout"/>
<trip type="noVar" depart="384" id="SflowUD.73" from="Uin" to="Dout"/>
<trip type="noVar" depart="384" id="SflowDU.73" from="Din" to="Uout"/>
<trip type="noVar" depart="389" id="SflowUD.74" from="Uin" to="Dout"/>
<trip type="noVar" depart="389" id="SflowDU.74" from="Din" to="Uout"/>
<trip type="noVar" depart="390" id="SflowLR.37" from="Lin" to="Rout"/>
<trip type="noVar" depart="390" id="SflowRL.37" from="Rin" to="Lout"/>
<trip type="noVar" depart="394" id="SflowUD.75" from="Uin" to="Dout"/>
<trip type="noVar" depart="394" id="SflowDU.75" from="Din" to="Uout"/>
<trip type="noVar" depart="400" id="SflowUD.76" from="Uin" to="Dout"/>
<trip type="noVar" depart="400" id="SflowDU.76" from="Din" to="Uout"/>
<trip type="noVar" depart="401" id="SflowLR.38" from="Lin" to="Rout"/>
<trip type="noVar" depart="401" id="SflowRL.38" from="Rin" to="Lout"/>
<trip type="noVar" depart="405" id="SflowUD.77" from="Uin" to="Dout"/>
<trip type="noVar" depart="405" id="SflowDU.77" from="Din" to="Uout"/>
<trip type="noVar" depart="410" id="SflowUD.78" from="Uin" to="Dout"/>
<trip type="noVar" depart="410" id="SflowDU.78" from="Din" to="Uout"/>
<trip type="noVar" depart="411" id="SflowLR.39" from="Lin" to="Rout"/>
<trip type="noVar" depart="411" id="SflowRL.39" from="Rin" to="Lout"/>
<trip type="noVar" depart="415" id="SflowUD.79" from="Uin" to="Dout"/>
<trip type="noVar" depart="415" id="SflowDU.79" from="Din" to="Uout"/>
<trip type="noVar" depart="421" id="SflowUD.80" from="Uin" to="Dout"/>
<trip type="noVar" depart="421" id="SflowDU.80" from="Din" to="Uout"/>
<trip type="noVar" depart="422" id="SflowLR.40" from="Lin" to="Rout"/>
<trip type="noVar" depart="422" id="SflowRL.40" from="Rin" to="Lout"/>
<trip type="noVar" depart="426" id="SflowUD.81" from="Uin" to="Dout"/>
<trip type="noVar" depart="426" id="SflowDU.81" from="Din" to="Uout"/>
<trip type="noVar" depart="431" id="SflowUD.82" from="Uin" to="Dout"/>
<trip type="noVar" depart="431" id="SflowDU.82" from="Din" to="Uout"/>
<trip type="noVar" depart="432" id="SflowLR.41" from="Lin" to="Rout"/>
<trip type="noVar" depart="432" id="SflowRL.41" from="Rin" to="Lout"/>
<trip type="noVar" depart="436" id="SflowUD.83" from="Uin" to="Dout"/>
<trip type="noVar" depart="436" id="SflowDU.83" from="Din" to="Uout"/>
<trip type="noVar" depart="442" id="SflowUD.84" from="Uin" to="Dout"/>
<trip type="noVar" depart="442" id="SflowDU.84" from="Din" to="Uout"/>
<trip type="noVar" depart="443" id="SflowLR.42" from="Lin" to="Rout"/>
<trip type="noVar" depart="443" id="SflowRL.42" from="Rin" to="Lout"/>
<trip type="noVar" depart="447" id="SflowUD.85" from="Uin" to="Dout"/>
<trip type="noVar" depart="447" id="SflowDU.85" from="Din" to="Uout"/>
<trip type="noVar" depart="452" id="SflowUD.86" from="Uin" to="Dout"/>
<trip type="noVar" depart="452" id="SflowDU.86" from="Din" to="Uout"/>
<trip type="noVar" depart="453" id="SflowLR.43" from="Lin" to="Rout"/>
<trip type="noVar" depart="453" id="SflowRL.43" from="Rin" to="Lout"/>
<trip type="noVar" depart="457" id="SflowUD.87" from="Uin" to="Dout"/>
<trip type="noVar" depart="457" id="SflowDU.87" from="Din" to="Uout"/>
<trip type="noVar" depart="463" id="SflowUD.88" from="Uin" to="Dout"/>
<trip type="noVar" depart="463" id="SflowDU.88" from="Din" to="Uout"/>
<trip type="noVar" depart="464" id="SflowLR.44" from="Lin" to="Rout"/>
<trip type="noVar" depart="464" id="SflowRL.44" from="Rin" to="Lout"/>
<trip type="noVar" depart="468" id="SflowUD.89" from="Uin" to="Dout"/>
<trip type="noVar" depart="468" id="SflowDU.89" from="Din" to="Uout"/>
<trip type="noVar" depart="473" id="SflowUD.90" from="Uin" to="Dout"/>
<trip type="noVar" depart="473" id="SflowDU.90" from="Din" to="Uout"/>
<trip type="noVar" depart="474" id="SflowLR.45" from="Lin" to="Rout"/>
<trip type="noVar" depart="474" id="SflowRL.45" from="Rin" to="Lout"/>
<trip type="noVar" depart="478" id="SflowUD.91" from="Uin" to="Dout"/>
<trip type="noVar" depart="478" id="SflowDU.91" from="Din" to="Uout"/>
<trip type="noVar" depart="484" id="SflowUD.92" from="Uin" to="Dout"/>
<trip type="noVar" depart="484" id="SflowDU.92" from="Din" to="Uout"/>
<trip type="noVar" depart="485" id="SflowLR.46" from="Lin" to="Rout"/>
<trip type="noVar" depart="485" id="SflowRL.46" from="Rin" to="Lout"/>
<trip type="noVar" depart="489" id="SflowUD.93" from="Uin" to="Dout"/>
<trip type="noVar" depart="489" id="SflowDU.93" from="Din" to="Uout"/>
<trip type="noVar" depart="494" id="SflowUD.94" from="Uin" to="Dout"/>
<trip type="noVar" depart="494" id="SflowDU.94" from="Din" to="Uout"/>
<trip type="noVar" depart="495" id="SflowLR.47" from="Lin" to="Rout"/>
<trip type="noVar" depart="495" id="SflowRL.47" from="Rin" to="Lout"/>
<trip type="noVar" depart="500" id="SflowUD.95" from="Uin" to="Dout"/>
<trip type="noVar" depart="500" id="SflowDU.95" from="Din" to="Uout"/>
<trip type="noVar" depart="505" id="SflowUD.96" from="Uin" to="Dout"/>
<trip type="noVar" depart="505" id="SflowDU.96" from="Din" to="Uout"/>
<trip type="noVar" depart="506" id="SflowLR.48" from="Lin" to="Rout"/>
<trip type="noVar" depart="506" id="SflowRL.48" from="Rin" to="Lout"/>
<trip type="noVar" depart="510" id="SflowUD.97" from="Uin" to="Dout"/>
<trip type="noVar" depart="510" id="SflowDU.97" from="Din" to="Uout"/>
<trip type="noVar" depart="515" id="SflowUD.98" from="Uin" to="Dout"/>
<trip type="noVar" depart="515" id="SflowDU.98" from="Din" to="Uout"/>
<trip type="noVar" depart="517" id="SflowLR.49" from="Lin" to="Rout"/>
<trip type="noVar" depart="517" id="SflowRL.49" from="Rin" to="Lout"/>
<trip type="noVar" depart="521" id="SflowUD.99" from="Uin" to="Dout"/>
<trip type="noVar" depart="521" id="SflowDU.99" from="Din" to="Uout"/>
<trip type="noVar" depart="526" id="SflowUD.100" from="Uin" to="Dout"/>
<trip type="noVar" depart="526" id="SflowDU.100" from="Din" to="Uout"/>
<trip type="noVar" depart="527" id="SflowLR.50" from="Lin" to="Rout"/>
<trip type="noVar" depart="527" id="SflowRL.50" from="Rin" to="Lout"/>
<trip type="noVar" depart="531" id="SflowUD.101" from="Uin" to="Dout"/>
<trip type="noVar" depart="531" id="SflowDU.101" from="Din" to="Uout"/>
<trip type="noVar" depart="536" id="SflowUD.102" from="Uin" to="Dout"/>
<trip type="noVar" depart="536" id="SflowDU.102" from="Din" to="Uout"/>
<trip type="noVar" depart="538" id="SflowLR.51" from="Lin" to="Rout"/>
<trip type="noVar" depart="538" id="SflowRL.51" from="Rin" to="Lout"/>
<trip type="noVar" depart="542" id="SflowUD.103" from="Uin" to="Dout"/>
<trip type="noVar" depart="542" id="SflowDU.103" from="Din" to="Uout"/>
<trip type="noVar" depart="547" id="SflowUD.104" from="Uin" to="Dout"/>
<trip type="noVar" depart="547" id="SflowDU.104" from="Din" to="Uout"/>
<trip type="noVar" depart="548" id="SflowLR.52" from="Lin" to="Rout"/>
<trip type="noVar" depart="548" id="SflowRL.52" from="Rin" to="Lout"/>
<trip type="noVar" depart="552" id="SflowUD.105" from="Uin" to="Dout"/>
<trip type="noVar" depart="552" id="SflowDU.105" from="Din" to="Uout"/>
<trip type="noVar" depart="557" id="SflowUD.106" from="Uin" to="Dout"/>
<trip type="noVar" depart="557" id="SflowDU.106" from="Din" to="Uout"/>
<trip type="noVar" depart="559" id="SflowLR.53" from="Lin" to="Rout"/>
<trip type="noVar" depart="559" id="SflowRL.53" from="Rin" to="Lout"/>
<trip type="noVar" depart="563" id="SflowUD.107" from="Uin" to="Dout"/>
<trip type="noVar" depart="563" id="SflowDU.107" from="Din" to="Uout"/>
<trip type="noVar" depart="568" id="SflowUD.108" from="Uin" to="Dout"/>
<trip type="noVar" depart="568" id="SflowDU.108" from="Din" to="Uout"/>
<trip type="noVar" depart="569" id="SflowLR.54" from="Lin" to="Rout"/>
<trip type="noVar" depart="569" id="SflowRL.54" from="Rin" to="Lout"/>
<trip type="noVar" depart="573" id="SflowUD.109" from="Uin" to="Dout"/>
<trip type="noVar" depart="573" id="SflowDU.109" from="Din" to="Uout"/>
<trip type="noVar" depart="578" id="SflowUD.110" from="Uin" to="Dout"/>
<trip type="noVar" depart="578" id="SflowDU.110" from="Din" to="Uout"/>
<trip type="noVar" depart="580" id="SflowLR.55" from="Lin" to="Rout"/>
<trip type="noVar" depart="580" id="SflowRL.55" from="Rin" to="Lout"/>
<trip type="noVar" depart="584" id="SflowUD.111" from="Uin" to="Dout"/>
<trip type="noVar" depart="584" id="SflowDU.111" from="Din" to="Uout"/>
<trip type="noVar" depart="589" id="SflowUD.112" from="Uin" to="Dout"/>
<trip type="noVar" depart="589" id="SflowDU.112" from="Din" to="Uout"/>
<trip type="noVar" depart="590" id="SflowLR.56" from="Lin" to="Rout"/>
<trip type="noVar" depart="590" id="SflowRL.56" from="Rin" to="Lout"/>
<trip type="noVar" depart="594" id="SflowUD.113" from="Uin" to="Dout"/>
<trip type="noVar" depart="594" id="SflowDU.113" from="Din" to="Uout"/>
<trip type="noVar" depart="600" id="SflowUD.114" from="Uin" to="Dout"/>
<trip type="noVar" depart="600" id="SflowDU.114" from="Din" to="Uout"/>
<trip type="noVar" depart="601" id="SflowLR.57" from="Lin" to="Rout"/>
<trip type="noVar" depart="601" id="SflowRL.57" from="Rin" to="Lout"/>
<trip type="noVar" depart="605" id="SflowUD.115" from="Uin" to="Dout"/>
<trip type="noVar" depart="605" id="SflowDU.115" from="Din" to="Uout"/>
<trip type="noVar" depart="610" id="SflowUD.116" from="Uin" to="Dout"/>
<trip type="noVar" depart="610" id="SflowDU.116" from="Din" to="Uout"/>
<trip type="noVar" depart="612" id="SflowLR.58" from="Lin" to="Rout"/>
<trip type="noVar" depart="612" id="SflowRL.58" from="Rin" to="Lout"/>
<trip type="noVar" depart="615" id="SflowUD.117" from="Uin" to="Dout"/>
<trip type="noVar" depart="615" id="SflowDU.117" from="Din" to="Uout"/>
<trip type="noVar" depart="621" id="SflowUD.118" from="Uin" to="Dout"/>
<trip type="noVar" depart="621" id="SflowDU.118" from="Din" to="Uout"/>
<trip type="noVar" depart="622" id="SflowLR.59" from="Lin" to="Rout"/>
<trip type="noVar" depart="622" id="SflowRL.59" from="Rin" to="Lout"/>
<trip type="noVar" depart="626" id="SflowUD.119" from="Uin" to="Dout"/>
<trip type="noVar" depart="626" id="SflowDU.119" from="Din" to="Uout"/>
<trip type="noVar" depart="631" id="SflowUD.120" from="Uin" to="Dout"/>
<trip type="noVar" depart="631" id="SflowDU.120" from="Din" to="Uout"/>
<trip type="noVar" depart="633" id="SflowLR.60" from="Lin" to="Rout"/>
<trip type="noVar" depart="633" id="SflowRL.60" from="Rin" to="Lout"/>
<trip type="noVar" depart="636" id="SflowUD.121" from="Uin" to="Dout"/>
<trip type="noVar" depart="636" id="SflowDU.121" from="Din" to="Uout"/>
<trip type="noVar" depart="642" id="SflowUD.122" from="Uin" to="Dout"/>
<trip type="noVar" depart="642" id="SflowDU.122" from="Din" to="Uout"/>
<trip type="noVar" depart="643" id="SflowLR.61" from="Lin" to="Rout"/>
<trip type="noVar" depart="643" id="SflowRL.61" from="Rin" to="Lout"/>
<trip type="noVar" depart="647" id="SflowUD.123" from="Uin" to="Dout"/>
<trip type="noVar" depart="647" id="SflowDU.123" from="Din" to="Uout"/>
<trip type="noVar" depart="652" id="SflowUD.124" from="Uin" to="Dout"/>
<trip type="noVar" depart="652" id="SflowDU.124" from="Din" to="Uout"/>
<trip type="noVar" depart="654" id="SflowLR.62" from="Lin" to="Rout"/>
<trip type="noVar" depart="654" id="SflowRL.62" from="Rin" to="Lout"/>
<trip type="noVar" depart="657" id="SflowUD.125" from="Uin" to="Dout"/>
<trip type="noVar" depart="657" id="SflowDU.125" from="Din" to="Uout"/>
<trip type="noVar" depart="663" id="SflowUD.126" from="Uin" to="Dout"/>
<trip type="noVar" depart="663" id="SflowDU.126" from="Din" to="Uout"/>
<trip type="noVar" depart="664" id="SflowLR.63" from="Lin" to="Rout"/>
<trip type="noVar" depart="664" id="SflowRL.63" from="Rin" to="Lout"/>
<trip type="noVar" depart="668" id="SflowUD.127" from="Uin" to="Dout"/>
<trip type="noVar" depart="668" id="SflowDU.127" from="Din" to="Uout"/>
<trip type="noVar" depart="673" id="SflowUD.128" from="Uin" to="Dout"/>
<trip type="noVar" depart="673" id="SflowDU.128" from="Din" to="Uout"/>
<trip type="noVar" depart="675" id="SflowLR.64" from="Lin" to="Rout"/>
<trip type="noVar" depart="675" id="SflowRL.64" from="Rin" to="Lout"/>
<trip type="noVar" depart="678" id="SflowUD.129" from="Uin" to="Dout"/>
<trip type="noVar" depart="678" id="SflowDU.129" from="Din" to="Uout"/>
<trip type="noVar" depart="684" id="SflowUD.130" from="Uin" to="Dout"/>
<trip type="noVar" depart="684" id="SflowDU.130" from="Din" to="Uout"/>
<trip type="noVar" depart="685" id="SflowLR.65" from="Lin" to="Rout"/>
<trip type="noVar" depart="685" id="SflowRL.65" from="Rin" to="Lout"/>
<trip type="noVar" depart="689" id="SflowUD.131" from="Uin" to="Dout"/>
<trip type="noVar" depart="689" id="SflowDU.131" from="Din" to="Uout"/>
<trip type="noVar" depart="694" id="SflowUD.132" from="Uin" to="Dout"/>
<trip type="noVar" depart="694" id="SflowDU.132" from="Din" to="Uout"/>
<trip type="noVar" depart="696" id="SflowLR.66" from="Lin" to="Rout"/>
<trip type="noVar" depart="696" id="SflowRL.66" from="Rin" to="Lout"/>
<trip type="noVar" depart="700" id="SflowUD.133" from="Uin" to="Dout"/>
<trip type="noVar" depart="700" id="SflowDU.133" from="Din" to="Uout"/>
<trip type="noVar" depart="705" id="SflowUD.134" from="Uin" to="Dout"/>
<trip type="noVar" depart="705" id="SflowDU.134" from="Din" to="Uout"/>
<trip type="noVar" depart="707" id="SflowLR.67" from="Lin" to="Rout"/>
<trip type="noVar" depart="707" id="SflowRL.67" from="Rin" to="Lout"/>
<trip type="noVar" depart="710" id="SflowUD.135" from="Uin" to="Dout"/>
<trip type="noVar" depart="710" id="SflowDU.135" from="Din" to="Uout"/>
<trip type="noVar" depart="715" id="SflowUD.136" from="Uin" to="Dout"/>
<trip type="noVar" depart="715" id="SflowDU.136" from="Din" to="Uout"/>
<trip type="noVar" depart="717" id="SflowLR.68" from="Lin" to="Rout"/>
<trip type="noVar" depart="717" id="SflowRL.68" from="Rin" to="Lout"/>
<trip type="noVar" depart="721" id="SflowUD.137" from="Uin" to="Dout"/>
<trip type="noVar" depart="721" id="SflowDU.137" from="Din" to="Uout"/>
<trip type="noVar" depart="726" id="SflowUD.138" from="Uin" to="Dout"/>
<trip type="noVar" depart="726" id="SflowDU.138" from="Din" to="Uout"/>
<trip type="noVar" depart="728" id="SflowLR.69" from="Lin" to="Rout"/>
<trip type="noVar" depart="728" id="SflowRL.69" from="Rin" to="Lout"/>
<trip type="noVar" depart="731" id="SflowUD.139" from="Uin" to="Dout"/>