<?xml version="1.0" encoding="UTF-8"?>
<routes xmlns:xsi="http://www.w3.org/2001/XMLSchema-instance" xsi:noNamespaceSchemaLocation="http://sumo.dlr.de/xsd/routes_file.xsd">

<vType id="noVar" speedFactor="1.0" speedDev="0.0"/>
<route id="route_SflowLR.0" edges="Lin Rout" />
<vehicle type="noVar" depart="0" id="SflowLR.0" route="route_SflowLR.0" />
<route id="route_SflowRL.0" edges="Rin Lout" />
<vehicle type="noVar" depart="0" id="SflowRL.0" route="route_SflowRL.0" />
<route id="route_SflowUD.0" edges="Uin Dout" />
<vehicle type="noVar" depart="0" id="SflowUD.0" route="route_SflowUD.0" />
<route id="route_SflowDU.0" edges="Din Uout" />
<vehicle type="noVar" depart="0" id="SflowDU.0" route="route_SflowDU.0" />
<route id="route_SflowUD.1" edges="Uin Dout" />
<vehicle type="noVar" depart="5" id="SflowUD.1" route="route_SflowUD.1" />
<route id="route_SflowDU.1" edges="Din Uout" />
<vehicle type="noVar" depart="5" id="SflowDU.1" route="route_SflowDU.1" />
<route id="route_SflowUD.2" edges="Uin Dout" />
<vehicle type="noVar" depart="10" id="SflowUD.2" route="route_SflowUD.2" />
<route id="route_SflowDU.2" edges="Din Uout" />
<vehicle type="noVar" depart="10" id="SflowDU.2" route="route_SflowDU.2" />
<route id="route_SflowLR.1" edges="Lin Rout" />
<vehicle type="noVar" depart="10" id="SflowLR.1" route="route_SflowLR.1" />
<route id="route_SflowRL.1" edges="Rin Lout" />
<vehicle type="noVar" depart="10" id="SflowRL.1" route="route_SflowRL.1" />
<route id="route_SflowUD.3" edges="Uin Dout" />
<vehicle type="noVar" depart="15" id="SflowUD.3" route="route_SflowUD.3" />
<route id="route_SflowDU.3" edges="Din Uout" />
<vehicle type="noVar" depart="15" id="SflowDU.3" route="route_SflowDU.3" />
<route id="route_SflowUD.4" edges="Uin Dout" />
<vehicle type="noVar" depart="21" id="SflowUD.4" route="route_SflowUD.4" />
<route id="route_SflowDU.4" edges="Din Uout" />
<vehicle type="noVar" depart="21" id="SflowDU.4" route="route_SflowDU.4" />
<route id="route_SflowLR.2" edges="Lin Rout" />
<vehicle type="noVar" depart="21" id="SflowLR.2" route="route_SflowLR.2" />
<route id="route_SflowRL.2" edges="Rin Lout" />
<vehicle type="noVar" depart="21" id="SflowRL.2" route="route_SflowRL.2" />
<route id="route_SflowUD.5" edges="Uin Dout" />
<vehicle type="noVar" depart="26" id="SflowUD.5" route="route_SflowUD.5" />
<route id="route_SflowDU.5" edges="Din Uout" />
<vehicle type="noVar" depart="26" id="SflowDU.5" route="route_SflowDU.5" />
<route id="route_SflowUD.6" edges="Uin Dout" />
<vehicle type="noVar" depart="31" id="SflowUD.6" route="route_SflowUD.6" />
<route id="route_SflowDU.6" edges="Din Uout" />
<vehicle type="noVar" depart="31" id="SflowDU.6" route="route_SflowDU.6" />
<route id="route_SflowLR.3" edges="Lin Rout" />
<vehicle type="noVar" depart="31" id="SflowLR.3" route="route_SflowLR.3" />
<route id="route_SflowRL.3" edges="Rin Lout" />
<vehicle type="noVar" depart="31" id="SflowRL.3" route="route_SflowRL.3" />
<route id="route_SflowUD.7" edges="Uin Dout" />
<vehicle type="noVar" depart="36" id="SflowUD.7" route="route_SflowUD.7" />
<route id="route_SflowDU.7" edges="Din Uout" />
<vehicle type="noVar" depart="36" id="SflowDU.7" route="route_SflowDU.7" />
<route id="route_SflowUD.8" edges="Uin Dout" />
<vehicle type="noVar" depart="42" id="SflowUD.8" route="route_SflowUD.8" />
<route id="route_SflowDU.8" edges="Din Uout" />
<vehicle type="noVar" depart="42" id="SflowDU.8" route="route_SflowDU.8" />
<route id="route_SflowLR.4" edges="Lin Rout" />
<vehicle type="noVar" depart="42" id="SflowLR.4" route="route_SflowLR.4" />
<route id="route_SflowRL.4" edges="Rin Lout" />
<vehicle type="noVar" depart="42" id="SflowRL.4" route="route_SflowRL.4" />
<route id="route_SflowUD.9" edges="Uin Dout" />
<vehicle type="noVar" depart="47" id="SflowUD.9" route="route_SflowUD.9" />
<route id="route_SflowDU.9" edges="Din Uout" />
<vehicle type="noVar" depart="47" id="SflowDU.9" route="route_SflowDU.9" />
<route id="route_SflowUD.10" edges="Uin Dout" />
<vehicle type="noVar" depart="52" id="SflowUD.10" route="route_SflowUD.10" />
<route id="route_SflowDU.10" edges="Din Uout" />
<vehicle type="noVar" depart="52" id="SflowDU.10" route="route_SflowDU.10" />
<route id="route_SflowLR.5" edges="Lin Rout" />
<vehicle type="noVar" depart="52" id="SflowLR.5" route="route_SflowLR.5" />
<route id="route_SflowRL.5" edges="Rin Lout" />
<vehicle type="noVar" depart="52" id="SflowRL.5" route="route_SflowRL.5" />
<route id="route_SflowUD.11" edges="Uin Dout" />
<vehicle type="noVar" depart="57" id="SflowUD.11" route="route_SflowUD.11" />
<route id="route_SflowDU.11" edges="Din Uout" />
<vehicle type="noVar" depart="57" id="SflowDU.11" route="route_SflowDU.11" />
<route id="route_SflowUD.12" edges="Uin Dout" />
<vehicle type="noVar" depart="63" id="SflowUD.12" route="route_SflowUD.12" />
<route id="route_SflowDU.12" edges="Din Uout" />
<vehicle type="noVar" depart="63" id="SflowDU.12" route="route_SflowDU.12" />
<route id="route_SflowLR.6" edges="Lin Rout" />
<vehicle type="noVar" depart="63" id="SflowLR.6" route="route_SflowLR.6" />
<route id="route_SflowRL.6" edges="Rin Lout" />
<vehicle type="noVar" depart="63" id="SflowRL.6" route="route_SflowRL.6" />
<route id="route_SflowUD.13" edges="Uin Dout" />
<vehicle type="noVar" depart="68" id="SflowUD.13" route="route_SflowUD.13" />
<route id="route_SflowDU.13" edges="Din Uout" />
<vehicle type="noVar" depart="68" id="SflowDU.13" route="route_SflowDU.13" />
<route id="route_SflowUD.14" edges="Uin Dout" />
<vehicle type="noVar" depart="73" id="SflowUD.14" route="route_SflowUD.14" />
<route id="route_SflowDU.14" edges="Din Uout" />
<vehicle type="noVar" depart="73" id="SflowDU.14" route="route_SflowDU.14" />
<route id="route_SflowLR.7" edges="Lin Rout" />
<vehicle type="noVar" depart="73" id="SflowLR.7" route="route_SflowLR.7" />
<route id="route_SflowRL.7" edges="Rin Lout" />
<vehicle type="noVar" depart="73" id="SflowRL.7" route="route_SflowRL.7" />
<route id="route_SflowUD.15" edges="Uin Dout" />
<vehicle type="noVar" depart="78" id="SflowUD.15" route="route_SflowUD.15" />
<route id="route_SflowDU.15" edges="Din Uout" />
<vehicle type="noVar" depart="78" id="SflowDU.15" route="route_SflowDU.15" />
<route id="route_SflowUD.16" edges="Uin Dout" />
<vehicle type="noVar" depart="84" id="SflowUD.16" route="route_SflowUD.16" />
<route id="route_SflowDU.16" edges="Din Uout" />
<vehicle type="noVar" depart="84" id="SflowDU.16" route="route_SflowDU.16" />
<route id="route_SflowLR.8" edges="Lin Rout" />
<vehicle type="noVar" depart="84" id="SflowLR.8" route="route_SflowLR.8" />
<route id="route_SflowRL.8" edges="Rin Lout" />
<vehicle type="noVar" depart="84" id="SflowRL.8" route="route_SflowRL.8" />
<route id="route_SflowUD.17" edges="Uin Dout" />
<vehicle type="noVar" depart="89" id="SflowUD.17" route="route_SflowUD.17" />
<route id="route_SflowDU.17" edges="Din Uout" />
<vehicle type="noVar" depart="89" id="SflowDU.17" route="route_SflowDU.17" />
<route id="route_SflowUD.18" edges="Uin Dout" />
<vehicle type="noVar" depart="94" id="SflowUD.18" route="route_SflowUD.18" />
<route id="route_SflowDU.18" edges="Din Uout" />
<vehicle type="noVar" depart="94" id="SflowDU.18" route="route_SflowDU.18" />
<route id="route_SflowLR.9" edges="Lin Rout" />
<vehicle type="noVar" depart="94" id="SflowLR.9" route="route_SflowLR.9" />
<route id="route_SflowRL.9" edges="Rin Lout" />
<vehicle type="noVar" depart="94" id="SflowRL.9" route="route_SflowRL.9" />
<route id="route_SflowUD.19" edges="Uin Dout" />
<vehicle type="noVar" depart="100" id="SflowUD.19" route="route_SflowUD.19" />
<route id="route_SflowDU.19" edges="Din Uout" />
<vehicle type="noVar" depart="100" id="SflowDU.19" route="route_SflowDU.19" />
<route id="route_SflowUD.20" edges="Uin Dout" />
<vehicle type="noVar" depart="105" id="SflowUD.20" route="route_SflowUD.20" />
<route id="route_SflowDU.20" edges="Din Uout" />
<vehicle type="noVar" depart="105" id="SflowDU.20" route="route_SflowDU.20" />
<route id="route_SflowLR.10" edges="Lin Rout" />
<vehicle type="noVar" depart="105" id="SflowLR.10" route="route_SflowLR.10" />
<route id="route_SflowRL.10" edges="Rin Lout" />
<vehicle type="noVar" depart="105" id="SflowRL.10" route="route_SflowRL.10" />
<route id="route_SflowUD.21" edges="Uin Dout" />
<vehicle type="noVar" depart="110" id="SflowUD.21" route="route_SflowUD.21" />
<route id="route_SflowDU.21" edges="Din Uout" />
<vehicle type="noVar" depart="110" id="SflowDU.21" route="route_SflowDU.21" />
<route id="route_SflowUD.22" edges="Uin Dout" />
<vehicle type="noVar" depart="115" id="SflowUD.22" route="route_SflowUD.22" />
<route id="route_SflowDU.22" edges="Din Uout" />
<vehicle type="noVar" depart="115" id="SflowDU.22" route="route_SflowDU.22" />
<route id="route_SflowLR.11" edges="Lin Rout" />
<vehicle type="noVar" depart="116" id="SflowLR.11" route="route_SflowLR.11" />
<route id="route_SflowRL.11" edges="Rin Lout" />
<vehicle type="noVar" depart="116" id="SflowRL.11" route="route_SflowRL.11" />
<route id="route_SflowUD.23" edges="Uin Dout" />
<vehicle type="noVar" depart="121" id="SflowUD.23" route="route_SflowUD.23" />
<route id="route_SflowDU.23" edges="Din Uout" />
<vehicle type="noVar" depart="121" id="SflowDU.23" route="route_SflowDU.23" />
<route id="route_SflowUD.24" edges="Uin Dout" />
<vehicle type="noVar" depart="126" id="SflowUD.24" route="route_SflowUD.24" />
<route id="route_SflowDU.24" edges="Din Uout" />
<vehicle type="noVar" depart="126" id="SflowDU.24" route="route_SflowDU.24" />
<route id="route_SflowLR.12" edges="Lin Rout" />
<vehicle type="noVar" depart="126" id="SflowLR.12" route="route_SflowLR.12" />
<route id="route_SflowRL.12" edges="Rin Lout" />
<vehicle type="noVar" depart="126" id="SflowRL.12" route="route_SflowRL.12" />
<route id="route_SflowUD.25" edges="Uin Dout" />
<vehicle type="noVar" depart="131" id="SflowUD.25" route="route_SflowUD.25" />
<route id="route_SflowDU.25" edges="Din Uout" />
<vehicle type="noVar" depart="131" id="SflowDU.25" route="route_SflowDU.25" />
<route id="route_SflowUD.26" edges="Uin Dout" />
<vehicle type="noVar" depart="136" id="SflowUD.26" route="route_SflowUD.26" />
<route id="route_SflowDU.26" edges="Din Uout" />
<vehicle type="noVar" depart="136" id="SflowDU.26" route="route_SflowDU.26" />
<route id="route_SflowLR.13" edges="Lin Rout" />
<vehicle type="noVar" depart="137" id="SflowLR.13" route="route_SflowLR.13" />
<route id="route_SflowRL.13" edges="Rin Lout" />
<vehicle type="noVar" depart="137" id="SflowRL.13" route="route_SflowRL.13" />
<route id="route_SflowUD.27" edges="Uin Dout" />
<vehicle type="noVar" depart="142" id="SflowUD.27" route="route_SflowUD.27" />
<route id="route_SflowDU.27" edges="Din Uout" />
<vehicle type="noVar" depart="142" id="SflowDU.27" route="route_SflowDU.27" />
<route id="route_SflowUD.28" edges="Uin Dout" />
<vehicle type="noVar" depart="147" id="SflowUD.28" route="route_SflowUD.28" />
<route id="route_SflowDU.28" edges="Din Uout" />
<vehicle type="noVar" depart="147" id="SflowDU.28" route="route_SflowDU.28" />
<route id="route_SflowLR.14" edges="Lin Rout" />
<vehicle type="noVar" depart="147" id="SflowLR.14" route="route_SflowLR.14" />
<route id="route_SflowRL.14" edges="Rin Lout" />
<vehicle type="noVar" depart="147" id="SflowRL.14" route="route_SflowRL.14" />
<route id="route_SflowUD.29" edges="Uin Dout" />
<vehicle type="noVar" depart="152" id="SflowUD.29" route="route_SflowUD.29" />
<route id="route_SflowDU.29" edges="Din Uout" />
<vehicle type="noVar" depart="152" id="SflowDU.29" route="route_SflowDU.29" />
<route id="route_SflowUD.30" edges="Uin Dout" />
<vehicle type="noVar" depart="157" id="SflowUD.30" route="route_SflowUD.30" />
<route id="route_SflowDU.30" edges="Din Uout" />
<vehicle type="noVar" depart="157" id="SflowDU.30" route="route_SflowDU.30" />
<route id="route_SflowLR.15" edges="Lin Rout" />
<vehicle type="noVar" depart="158" id="SflowLR.15" route="route_SflowLR.15" />
<route id="route_SflowRL.15" edges="Rin Lout" />
<vehicle type="noVar" depart="158" id="SflowRL.15" route="route_SflowRL.15" />
<route id="route_SflowUD.31" edges="Uin Dout" />
<vehicle type="noVar" depart="163" id="SflowUD.31" route="route_SflowUD.31" />
<route id="route_SflowDU.31" edges="Din Uout" />
<vehicle type="noVar" depart="163" id="SflowDU.31" route="route_SflowDU.31" />
<route id="route_SflowUD.32" edges="Uin Dout" />
<vehicle type="noVar" depart="168" id="SflowUD.32" route="route_SflowUD.32" />
<route id="route_SflowDU.32" edges="Din Uout" />
<vehicle type="noVar" depart="168" id="SflowDU.32" route="route_SflowDU.32" />
<route id="route_SflowLR.16" edges="Lin Rout" />
<vehicle type="noVar" depart="168" id="SflowLR.16" route="route_SflowLR.16" />
<route id="route_SflowRL.16" edges="Rin Lout" />
<vehicle type="noVar" depart="168" id="SflowRL.16" route="route_SflowRL.16" />
<route id="route_SflowUD.33" edges="Uin Dout" />
<vehicle type="noVar" depart="173" id="SflowUD.33" route="route_SflowUD.33" />
<route id="route_SflowDU.33" edges="Din Uout" />
<vehicle type="noVar" depart="173" id="SflowDU.33" route="route_SflowDU.33" />
<route id="route_SflowUD.34" edges="Uin Dout" />
<vehicle type="noVar" depart="178" id="SflowUD.34" route="route_SflowUD.34" />
<route id="route_SflowDU.34" edges="Din Uout" />
<vehicle type="noVar" depart="178" id="SflowDU.34" route="route_SflowDU.34" />
<route id="route_SflowLR.17" edges="Lin Rout" />
<vehicle type="noVar" depart="179" id="SflowLR.17" route="route_SflowLR.17" />
<route id="route_SflowRL.17" edges="Rin Lout" />
<vehicle type="noVar" depart="179" id="SflowRL.17" route="route_SflowRL.17" />
<route id="route_SflowUD.35" edges="Uin Dout" />
<vehicle type="noVar" depart="184" id="SflowUD.35" route="route_SflowUD.35" />
<route id="route_SflowDU.35" edges="Din Uout" />
<vehicle type="noVar" depart="184" id="SflowDU.35" route="route_SflowDU.35" />
<route id="route_SflowUD.36" edges="Uin Dout" />
<vehicle type="noVar" depart="189" id="SflowUD.36" route="route_SflowUD.36" />
<route id="route_SflowDU.36" edges="Din Uout" />
<vehicle type="noVar" depart="189" id="SflowDU.36" route="route_SflowDU.36" />
<route id="route_SflowLR.18" edges="Lin Rout" />
<vehicle type="noVar" depart="189" id="SflowLR.18" route="route_SflowLR.18" />
<route id="route_SflowRL.18" edges="Rin Lout" />
<vehicle type="noVar" depart="189" id="SflowRL.18" route="route_SflowRL.18" />
<route id="route_SflowUD.37" edges="Uin Dout" />
<vehicle type="noVar" depart="194" id="SflowUD.37" route="route_SflowUD.37" />
<route id="route_SflowDU.37" edges="Din Uout" />
<vehicle type="noVar" depart="194" id="SflowDU.37" route="route_SflowDU.37" />
<route id="route_SflowUD.38" edges="Uin Dout" />
<vehicle type="noVar" depart="200" id="SflowUD.38" route="route_SflowUD.38" />
<route id="route_SflowDU.38" edges="Din Uout" />
<vehicle type="noVar" depart="200" id="SflowDU.38" route="route_SflowDU.38" />
<route id="route_SflowLR.19" edges="Lin Rout" />
<vehicle type="noVar" depart="200" id="SflowLR.19" route="route_SflowLR.19" />
<route id="route_SflowRL.19" edges="Rin Lout" />
<vehicle type="noVar" depart="200" id="SflowRL.19" route="route_SflowRL.19" />
<route id="route_SflowUD.39" edges="Uin Dout" />
<vehicle type="noVar" depart="205" id="SflowUD.39" route="route_SflowUD.39" />
<route id="route_SflowDU.39" edges="Din Uout" />
<vehicle type="noVar" depart="205" id="SflowDU.39" route="route_SflowDU.39" />
<route id="route_SflowUD.40" edges="Uin Dout" />
<vehicle type="noVar" depart="210" id="SflowUD.40" route="route_SflowUD.40" />
<route id="route_SflowDU.40" edges="Din Uout" />
<vehicle type="noVar" depart="210" id="SflowDU.40" route="route_SflowDU.40" />
<route id="route_SflowLR.20" edges="Lin Rout" />
<vehicle type="noVar" depart="211" id="SflowLR.20" route="route_SflowLR.20" />
<route id="route_SflowRL.20" edges="Rin Lout" />
<vehicle type="noVar" depart="211" id="SflowRL.20" route="route_SflowRL.20" />
<route id="route_SflowUD.41" edges="Uin Dout" />
<vehicle type="noVar" depart="215" id="SflowUD.41" route="route_SflowUD.41" />
<route id="route_SflowDU.41" edges="Din Uout" />
<vehicle type="noVar" depart="215" id="SflowDU.41" route="route_SflowDU.41" />
<route id="route_SflowUD.42" edges="Uin Dout" />
<vehicle type="noVar" depart="221" id="SflowUD.42" route="route_SflowUD.42" />
<route id="route_SflowDU.42" edges="Din Uout" />
<vehicle type="noVar" depart="221" id="SflowDU.42" route="route_SflowDU.42" />
<route id="route_SflowLR.21" edges="Lin Rout" />
<vehicle type="noVar" depart="221" id="SflowLR.21" route="route_SflowLR.21" />
<route id="route_SflowRL.21" edges="Rin Lout" />
<vehicle type="noVar" depart="221" id="SflowRL.21" route="route_SflowRL.21" />
<route id="route_SflowUD.43" edges="Uin Dout" />
<vehicle type="noVar" depart="226" id="SflowUD.43" route="route_SflowUD.43" />
<route id="route_SflowDU.43" edges="Din Uout" />
<vehicle type="noVar" depart="226" id="SflowDU.43" route="route_SflowDU.43" />
<route id="route_SflowUD.44" edges="Uin Dout" />
<vehicle type="noVar" depart="231" id="SflowUD.44" route="route_SflowUD.44" />
<route id="route_SflowDU.44" edges="Din Uout" />
<vehicle type="noVar" depart="231" id="SflowDU.44" route="route_SflowDU.44" />
<route id="route_SflowLR.22" edges="Lin Rout" />
<vehicle type="noVar" depart="232" id="SflowLR.22" route="route_SflowLR.22" />
<route id="route_SflowRL.22" edges="Rin Lout" />
<vehicle type="noVar" depart="232" id="SflowRL.22" route="route_SflowRL.22" />
<route id="route_SflowUD.45" edges="Uin Dout" />
<vehicle type="noVar" depart="236" id="SflowUD.45" route="route_SflowUD.45" />
<route id="route_SflowDU.45" edges="Din Uout" />
<vehicle type="noVar" depart="236" id="SflowDU.45" route="route_SflowDU.45" />
<route id="route_SflowUD.46" edges="Uin Dout" />
<vehicle type="noVar" depart="242" id="SflowUD.46" route="route_SflowUD.46" />
<route id="route_SflowDU.46" edges="Din Uout" />
<vehicle type="noVar" depart="242" id="SflowDU.46" route="route_SflowDU.46" />
<route id="route_SflowLR.23" edges="Lin Rout" />
<vehicle type="noVar" depart="242" id="SflowLR.23" route="route_SflowLR.23" />
<route id="route_SflowRL.23" edges="Rin Lout" />
<vehicle type="noVar" depart="242" id="SflowRL.23" route="route_SflowRL.23" />
<route id="route_SflowUD.47" edges="Uin Dout" />
<vehicle type="noVar" depart="247" id="SflowUD.47" route="route_SflowUD.47" />
<route id="route_SflowDU.47" edges="Din Uout" />
<vehicle type="noVar" depart="247" id="SflowDU.47" route="route_SflowDU.47" />
<route id="route_SflowUD.48" edges="Uin Dout" />
<vehicle type="noVar" depart="252" id="SflowUD.48" route="route_SflowUD.48" />
<route id="route_SflowDU.48" edges="Din Uout" />
<vehicle type="noVar" depart="252" id="SflowDU.48" route="route_SflowDU.48" />
<route id="route_SflowLR.24" edges="Lin Rout" />
<vehicle type="noVar" depart="253" id="SflowLR.24" route="route_SflowLR.24" />
<route id="route_SflowRL.24" edges="Rin Lout" />
<vehicle type="noVar" depart="253" id="SflowRL.24" route="route_SflowRL.24" />
<route id="route_SflowUD.49" edges="Uin Dout" />
<vehicle type="noVar" depart="257" id="SflowUD.49" route="route_SflowUD.49" />
<route id="route_SflowDU.49" edges="Din Uout" />
<vehicle type="noVar" depart="257" id="SflowDU.49" route="route_SflowDU.49" />
<route id="route_SflowUD.50" edges="Uin Dout" />
<vehicle type="noVar" depart="263" id="SflowUD.50" route="route_SflowUD.50" />
<route id="route_SflowDU.50" edges="Din Uout" />
<vehicle type="noVar" depart="263" id="SflowDU.50" route="route_SflowDU.50" />
<route id="route_SflowLR.25" edges="Lin Rout" />
<vehicle type="noVar" depart="263" id="SflowLR.25" route="route_SflowLR.25" />
<route id="route_SflowRL.25" edges="Rin Lout" />
<vehicle type="noVar" depart="263" id="SflowRL.25" route="route_SflowRL.25" />
<route id="route_SflowUD.51" edges="Uin Dout" />
<vehicle type="noVar" depart="268" id="SflowUD.51" route="route_SflowUD.51" />
<route id="route_SflowDU.51" edges="Din Uout" />
<vehicle type="noVar" depart="268" id="SflowDU.51" route="route_SflowDU.51" />
<route id="route_SflowUD.52" edges="Uin Dout" />
<vehicle type="noVar" depart="273" id="SflowUD.52" route="route_SflowUD.52" />
<route id="route_SflowDU.52" edges="Din Uout" />
<vehicle type="noVar" depart="273" id="SflowDU.52" route="route_SflowDU.52" />
<route id="route_SflowLR.26" edges="Lin Rout" />
<vehicle type="noVar" depart="274" id="SflowLR.26" route="route_SflowLR.26" />
<route id="route_SflowRL.26" edges="Rin Lout" />
<vehicle type="noVar" depart="274" id="SflowRL.26" route="route_SflowRL.26" />
<route id="route_SflowUD.53" edges="Uin Dout" />
<vehicle type="noVar" depart="278" id="SflowUD.53" route="route_SflowUD.53" />
<route id="route_SflowDU.53" edges="Din Uout" />
<vehicle type="noVar" depart="278" id="SflowDU.53" route="route_SflowDU.53" />
<route id="route_SflowUD.54" edges="Uin Dout" />
<vehicle type="noVar" depart="284" id="SflowUD.54" route="route_SflowUD.54" />
<route id="route_SflowDU.54" edges="Din Uout" />
<vehicle type="noVar" depart="284" id="SflowDU.54" route="route_SflowDU.54" />
<route id="route_SflowLR.27" edges="Lin Rout" />
<vehicle type="noVar" depart="284" id="SflowLR.27" route="route_SflowLR.27" />
<route id="route_SflowRL.27" edges="Rin Lout" />
<vehicle type="noVar" depart="284" id="SflowRL.27" route="route_SflowRL.27" />
<route id="route_SflowUD.55" edges="Uin Dout" />
<vehicle type="noVar" depart="289" id="SflowUD.55" route="route_SflowUD.55" />
<route id="route_SflowDU.55" edges="Din Uout" />
<vehicle type="noVar" depart="289" id="SflowDU.55" route="route_SflowDU.55" />
<route id="route_SflowUD.56" edges="Uin Dout" />
<vehicle type="noVar" depart="294" id="SflowUD.56" route="route_SflowUD.56" />
<route id="route_SflowDU.56" edges="Din Uout" />
<vehicle type="noVar" depart="294" id="SflowDU.56" route="route_SflowDU.56" />
<route id="route_SflowLR.28" edges="Lin Rout" />
<vehicle type="noVar" depart="295" id="SflowLR.28" route="route_SflowLR.28" />
<route id="route_SflowRL.28" edges="Rin Lout" />
<vehicle type="noVar" depart="295" id="SflowRL.28" route="route_SflowRL.28" />
<route id="route_SflowUD.57" edges="Uin Dout" />
<vehicle type="noVar" depart="300" id="SflowUD.57" route="route_SflowUD.57" />
<route id="route_SflowDU.57" edges="Din Uout" />
<vehicle type="noVar" depart="300" id="SflowDU.57" route="route_SflowDU.57" />
<route id="route_SflowUD.58" edges="Uin Dout" />
<vehicle type="noVar" depart="305" id="SflowUD.58" route="route_SflowUD.58" />
<route id="route_SflowDU.58" edges="Din Uout" />
<vehicle type="noVar" depart="305" id="SflowDU.58" route="route_SflowDU.58" />
<route id="route_SflowLR.29" edges="Lin Rout" />
<vehicle type="noVar" depart="306" id="SflowLR.29" route="route_SflowLR.29" />
<route id="route_SflowRL.29" edges="Rin Lout" />
<vehicle type="noVar" depart="306" id="SflowRL.29" route="route_SflowRL.29" />
<route id="route_SflowUD.59" edges="Uin Dout" />
<vehicle type="noVar" depart="310" id="SflowUD.59" route="route_SflowUD.59" />
<route id="route_SflowDU.59" edges="Din Uout" />
<vehicle type="noVar" depart="310" id="SflowDU.59" route="route_SflowDU.59" />
<route id="route_SflowUD.60" edges="Uin Dout" />
<vehicle type="noVar" depart="315" id="SflowUD.60" route="route_SflowUD.60" />
<route id="route_SflowDU.60" edges="Din Uout" />
<vehicle type="noVar" depart="315" id="SflowDU.60" route="route_SflowDU.60" />
<route id="route_SflowLR.30" edges="Lin Rout" />
<vehicle type="noVar" depart="316" id="SflowLR.30" route="route_SflowLR.30" />
<route id="route_SflowRL.30" edges="Rin Lout" />
<vehicle type="noVar" depart="316" id="SflowRL.30" route="route_SflowRL.30" />
<route id="route_SflowUD.61" edges="Uin Dout" />
<vehicle type="noVar" depart="321" id="SflowUD.61" route="route_SflowUD.61" />
<route id="route_SflowDU.61" edges="Din Uout" />
<vehicle type="noVar" depart="321" id="SflowDU.61" route="route_SflowDU.61" />
<route id="route_SflowUD.62" edges="Uin Dout" />
<vehicle type="noVar" depart="326" id="SflowUD.62" route="route_SflowUD.62" />
<route id="route_SflowDU.62" edges="Din Uout" />
<vehicle type="noVar" depart="326" id="SflowDU.62" route="route_SflowDU.62" />
<route id="route_SflowLR.31" edges="Lin Rout" />
<vehicle type="noVar" depart="327" id="SflowLR.31" route="route_SflowLR.31" />
<route id="route_SflowRL.31" edges="Rin Lout" />
<vehicle type="noVar" depart="327" id="SflowRL.31" route="route_SflowRL.31" />
<route id="route_SflowUD.63" edges="Uin Dout" />
<vehicle type="noVar" depart="331" id="SflowUD.63" route="route_SflowUD.63" />
<route id="route_SflowDU.63" edges="Din Uout" />
<vehicle type="noVar" depart="331" id="SflowDU.63" route="route_SflowDU.63" />
<route id="route_SflowUD.64" edges="Uin Dout" />
<vehicle type="noVar" depart="336" id="SflowUD.64" route="route_SflowUD.64" />
<route id="route_SflowDU.64" edges="Din Uout" />
<vehicle type="noVar" depart="336" id="SflowDU.64" route="route_SflowDU.64" />
<route id="route_SflowLR.32" edges="Lin Rout" />
<vehicle type="noVar" depart="337" id="SflowLR.32" route="route_SflowLR.32" />
<route id="route_SflowRL.32" edges="Rin Lout" />
<vehicle type="noVar" depart="337" id="SflowRL.32" route="route_SflowRL.32" />
<route id="route_SflowUD.65" edges="Uin Dout" />
<vehicle type="noVar" depart="342" id="SflowUD.65" route="route_SflowUD.65" />
<route id="route_SflowDU.65" edges="Din Uout" />
<vehicle type="noVar" depart="342" id="SflowDU.65" route="route_SflowDU.65" />
<route id="route_SflowUD.66" edges="Uin Dout" />
<vehicle type="noVar" depart="347" id="SflowUD.66" route="route_SflowUD.66" />
<route id="route_SflowDU.66" edges="Din Uout" />
<vehicle type="noVar" depart="347" id="SflowDU.66" route="route_SflowDU.66" />
<route id="route_SflowLR.33" edges="Lin Rout" />
<vehicle type="noVar" depart="348" id="SflowLR.33" route="route_SflowLR.33" />
<route id="route_SflowRL.33" edges="Rin Lout" />
<vehicle type="noVar" depart="348" id="SflowRL.33" route="route_SflowRL.33" />
<route id="route_SflowUD.67" edges="Uin Dout" />
<vehicle type="noVar" depart="352" id="SflowUD.67" route="route_SflowUD.67" />
<route id="route_SflowDU.67" edges="Din Uout" />
<vehicle type="noVar" depart="352" id="SflowDU.67" route="route_SflowDU.67" />
<route id="route_SflowUD.68" edges="Uin Dout" />
<vehicle type="noVar" depart="357" id="SflowUD.68" route="route_SflowUD.68" />
<route id="route_SflowDU.68" edges="Din Uout" />
<vehicle type="noVar" depart="357" id="SflowDU.68" route="route_SflowDU.68" />
<route id="route_SflowLR.34" edges="Lin Rout" />
<vehicle type="noVar" depart="358" id="SflowLR.34" route="route_SflowLR.34" />
<route id="route_SflowRL.34" edges="Rin Lout" />
<vehicle type="noVar" depart="358" id="SflowRL.34" route="route_SflowRL.34" />
<route id="route_SflowUD.69" edges="Uin Dout" />
<vehicle type="noVar" depart="363" id="SflowUD.69" route="route_SflowUD.69" />
<route id="route_SflowDU.69" edges="Din Uout" />
<vehicle type="noVar" depart="363" id="SflowDU.69" route="route_SflowDU.69" />
<route id="route_SflowUD.70" edges="Uin Dout" />
<vehicle type="noVar" depart="368" id="SflowUD.70" route="route_SflowUD.70" />
<route id="route_SflowDU.70" edges="Din Uout" />
<vehicle type="noVar" depart="368" id="SflowDU.70" route="route_SflowDU.70" />
<route id="route_SflowLR.35" edges="Lin Rout" />
<vehicle type="noVar" depart="369" id="SflowLR.35" route="route_SflowLR.35" />
<route id="route_SflowRL.35" edges="Rin Lout" />
<vehicle type="noVar" depart="369" id="SflowRL.35" route="route_SflowRL.35" />
<route id="route_SflowUD.71" edges="Uin Dout" />
<vehicle type="noVar" depart="373" id="SflowUD.71" route="route_SflowUD.71" />
<route id="route_SflowDU.71" edges="Din Uout" />
<vehicle type="noVar" depart="373" id="SflowDU.71" route="route_SflowDU.71" />
<route id="route_SflowUD.72" edges="Uin Dout" />
<vehicle type="noVar" depart="378" id="SflowUD.72" route="route_SflowUD.72" />
<route id="route_SflowDU.72" edges="Din Uout" />
<vehicle type="noVar" depart="378" id="SflowDU.72" route="route_SflowDU.72" />
<route id="route_SflowLR.36" edges="Lin Rout" />
<vehicle type="noVar" depart="379" id="SflowLR.36" route="route_SflowLR.36" />
<route id="route_SflowRL.36" edges="Rin Lout" />
<vehicle type="noVar" depart="379" id="SflowRL.36" route="route_SflowRL.36" />
<route id="route_SflowUD.73" edges="Uin Dout" />
<vehicle type="noVar" depart="384" id="SflowUD.73" route="route_SflowUD.73" />
<route id="route_SflowDU.73" edges="Din Uout" />
<vehicle type="noVar" depart="384" id="SflowDU.73" route="route_SflowDU.73" />
<route id="route_SflowUD.74" edges="Uin Dout" />
<vehicle type="noVar" depart="389" id="SflowUD.74" route="route_SflowUD.74" />
<route id="route_SflowDU.74" edges="Din Uout" />
<vehicle type="noVar" depart="389" id="SflowDU.74" route="route_SflowDU.74" />
<route id="route_SflowLR.37" edges="Lin Rout" />
<vehicle type="noVar" depart="390" id="SflowLR.37" route="route_SflowLR.37" />
<route id="route_SflowRL.37" edges="Rin Lout" />
<vehicle type="noVar" depart="390" id="SflowRL.37" route="route_SflowRL.37" />
<route id="route_SflowUD.75" edges="Uin Dout" />
<vehicle type="noVar" depart="394" id="SflowUD.75" route="route_SflowUD.75" />
<route id="route_SflowDU.75" edges="Din Uout" />
<vehicle type="noVar" depart="394" id="SflowDU.75" route="route_SflowDU.75" />
<route id="route_SflowUD.76" edges="Uin Dout" />
<vehicle type="noVar" depart="400" id="SflowUD.76" route="route_SflowUD.76" />
<route id="route_SflowDU.76" edges="Din Uout" />
<vehicle type="noVar" depart="400" id="SflowDU.76" route="route_SflowDU.76" />
<route id="route_SflowLR.38" edges="Lin Rout" />
<vehicle type="noVar" depart="401" id="SflowLR.38" route="route_SflowLR.38" />
<route id="route_SflowRL.38" edges="Rin Lout" />
<vehicle type="noVar" depart="401" id="SflowRL.38" route="route_SflowRL.38" />
<route id="route_SflowUD.77" edges="Uin Dout" />
<vehicle type="noVar" depart="405" id="SflowUD.77" route="route_SflowUD.77" />
<route id="route_SflowDU.77" edges="Din Uout" />
<vehicle type="noVar" depart="405" id="SflowDU.77" route="route_SflowDU.77" />