<?xml version="1.0" encoding="UTF-8"?>
<routes xmlns:xsi="http://www.w3.org/2001/XMLSchema-instance" xsi:noNamespaceSchemaLocation="http://sumo.dlr.de/xsd/routes_file.xsd">

<vType id="noVar" speedFactor="1.0" speedDev="0.0"/>
<route id="route_SflowLR.0" edges=" Lin Rout" />
<vehicle depart="0" id="SflowLR.0" route="route_SflowLR.0" />
<route id="route_SflowRL.0" edges=" Rin Lout" />
<vehicle depart="0" id="SflowRL.0" route="route_SflowRL.0" />
<route id="route_SflowUD.0" edges=" Uin Dout" />
<vehicle depart="0" id="SflowUD.0" route="route_SflowUD.0" />
<route id="route_SflowDU.0" edges=" Din Uout" />
<vehicle depart="0" id="SflowDU.0" route="route_SflowDU.0" />
<route id="route_SflowLU.0" edges=" Lin Uout" />
<vehicle depart="3" id="SflowLU.0" route="route_SflowLU.0" />
<route id="route_SflowRU.0" edges=" Rin Uout" />
<vehicle depart="3" id="SflowRU.0" route="route_SflowRU.0" />
<route id="route_SflowUL.0" edges=" Uin Lout" />
<vehicle depart="3" id="SflowUL.0" route="route_SflowUL.0" />
<route id="route_SflowDL.0" edges=" Din Lout" />
<vehicle depart="3" id="SflowDL.0" route="route_SflowDL.0" />
<route id="route_SflowLD.0" edges=" Lin Dout" />
<vehicle depart="6" id="SflowLD.0" route="route_SflowLD.0" />
<route id="route_SflowRD.0" edges=" Rin Dout" />
<vehicle depart="6" id="SflowRD.0" route="route_SflowRD.0" />
<route id="route_SflowUR.0" edges=" Uin Rout" />
<vehicle depart="6" id="SflowUR.0" route="route_SflowUR.0" />
<route id="route_SflowDR.0" edges=" Din Rout" />
<vehicle depart="6" id="SflowDR.0" route="route_SflowDR.0" />
<route id="route_SflowLR.1" edges=" Lin Rout" />
<vehicle depart="9" id="SflowLR.1" route="route_SflowLR.1" />
<route id="route_SflowRL.1" edges=" Rin Lout" />
<vehicle depart="9" id="SflowRL.1" route="route_SflowRL.1" />
<route id="route_SflowLR.2" edges=" Lin Rout" />
<vehicle depart="14" id="SflowLR.2" route="route_SflowLR.2" />
<route id="route_SflowRL.2" edges=" Rin Lout" />
<vehicle depart="14" id="SflowRL.2" route="route_SflowRL.2" />
<route id="route_SflowUD.1" edges=" Uin Dout" />
<vehicle depart="14" id="SflowUD.1" route="route_SflowUD.1" />
<route id="route_SflowDU.1" edges=" Din Uout" />
<vehicle depart="14" id="SflowDU.1" route="route_SflowDU.1" />
<route id="route_SflowLR.3" edges=" Lin Rout" />
<vehicle depart="21" id="SflowLR.3" route="route_SflowLR.3" />
<route id="route_SflowRL.3" edges=" Rin Lout" />
<vehicle depart="21" id="SflowRL.3" route="route_SflowRL.3" />
<route id="route_SflowLU.1" edges=" Lin Uout" />
<vehicle depart="24" id="SflowLU.1" route="route_SflowLU.1" />
<route id="route_SflowRU.1" edges=" Rin Uout" />
<vehicle depart="24" id="SflowRU.1" route="route_SflowRU.1" />
<route id="route_SflowLD.1" edges=" Lin Dout" />
<vehicle depart="27" id="SflowLD.1" route="route_SflowLD.1" />
<route id="route_SflowRD.1" edges=" Rin Dout" />
<vehicle depart="27" id="SflowRD.1" route="route_SflowRD.1" />
<route id="route_SflowUD.2" edges=" Uin Dout" />
<vehicle depart="28" id="SflowUD.2" route="route_SflowUD.2" />
<route id="route_SflowDU.2" edges=" Din Uout" />
<vehicle depart="28" id="SflowDU.2" route="route_SflowDU.2" />
<route id="route_SflowLR.4" edges=" Lin Rout" />
<vehicle depart="30" id="SflowLR.4" route="route_SflowLR.4" />
<route id="route_SflowRL.4" edges=" Rin Lout" />
<vehicle depart="30" id="SflowRL.4" route="route_SflowRL.4" />
<route id="route_SflowLR.5" edges=" Lin Rout" />
<vehicle depart="35" id="SflowLR.5" route="route_SflowLR.5" />
<route id="route_SflowRL.5" edges=" Rin Lout" />
<vehicle depart="35" id="SflowRL.5" route="route_SflowRL.5" />
<route id="route_SflowLR.6" edges=" Lin Rout" />
<vehicle depart="42" id="SflowLR.6" route="route_SflowLR.6" />
<route id="route_SflowRL.6" edges=" Rin Lout" />
<vehicle depart="42" id="SflowRL.6" route="route_SflowRL.6" />
<route id="route_SflowUD.3" edges=" Uin Dout" />
<vehicle depart="42" id="SflowUD.3" route="route_SflowUD.3" />
<route id="route_SflowDU.3" edges=" Din Uout" />
<vehicle depart="42" id="SflowDU.3" route="route_SflowDU.3" />
<route id="route_SflowLU.2" edges=" Lin Uout" />
<vehicle depart="45" id="SflowLU.2" route="route_SflowLU.2" />
<route id="route_SflowRU.2" edges=" Rin Uout" />
<vehicle depart="45" id="SflowRU.2" route="route_SflowRU.2" />
<route id="route_SflowUL.1" edges=" Uin Lout" />
<vehicle depart="45" id="SflowUL.1" route="route_SflowUL.1" />
<route id="route_SflowDL.1" edges=" Din Lout" />
<vehicle depart="45" id="SflowDL.1" route="route_SflowDL.1" />
<route id="route_SflowUR.1" edges=" Uin Rout" />
<vehicle depart="47" id="SflowUR.1" route="route_SflowUR.1" />
<route id="route_SflowLD.2" edges=" Lin Dout" />
<vehicle depart="48" id="SflowLD.2" route="route_SflowLD.2" />
<route id="route_SflowRD.2" edges=" Rin Dout" />
<vehicle depart="48" id="SflowRD.2" route="route_SflowRD.2" />
<route id="route_SflowDR.1" edges=" Din Rout" />
<vehicle depart="48" id="SflowDR.1" route="route_SflowDR.1" />
<route id="route_SflowLR.7" edges=" Lin Rout" />
<vehicle depart="51" id="SflowLR.7" route="route_SflowLR.7" />
<route id="route_SflowRL.7" edges=" Rin Lout" />
<vehicle depart="51" id="SflowRL.7" route="route_SflowRL.7" />
<route id="route_SflowLR.8" edges=" Lin Rout" />
<vehicle depart="56" id="SflowLR.8" route="route_SflowLR.8" />
<route id="route_SflowRL.8" edges=" Rin Lout" />
<vehicle depart="56" id="SflowRL.8" route="route_SflowRL.8" />
<route id="route_SflowUD.4" edges=" Uin Dout" />
<vehicle depart="56" id="SflowUD.4" route="route_SflowUD.4" />
<route id="route_SflowDU.4" edges=" Din Uout" />
<vehicle depart="56" id="SflowDU.4" route="route_SflowDU.4" />
<route id="route_SflowLR.9" edges=" Lin Rout" />
<vehicle depart="63" id="SflowLR.9" route="route_SflowLR.9" />
<route id="route_SflowRL.9" edges=" Rin Lout" />
<vehicle depart="63" id="SflowRL.9" route="route_SflowRL.9" />
<route id="route_SflowLU.3" edges=" Lin Uout" />
<vehicle depart="66" id="SflowLU.3" route="route_SflowLU.3" />
<route id="route_SflowRU.3" edges=" Rin Uout" />
<vehicle depart="66" id="SflowRU.3" route="route_SflowRU.3" />
<route id="route_SflowLD.3" edges=" Lin Dout" />
<vehicle depart="69" id="SflowLD.3" route="route_SflowLD.3" />
<route id="route_SflowRD.3" edges=" Rin Dout" />
<vehicle depart="70" id="SflowRD.3" route="route_SflowRD.3" />
<route id="route_SflowUD.5" edges=" Uin Dout" />
<vehicle depart="70" id="SflowUD.5" route="route_SflowUD.5" />
<route id="route_SflowDU.5" edges=" Din Uout" />
<vehicle depart="70" id="SflowDU.5" route="route_SflowDU.5" />
<route id="route_SflowLR.10" edges=" Lin Rout" />
<vehicle depart="72" id="SflowLR.10" route="route_SflowLR.10" />
<route id="route_SflowRL.10" edges=" Rin Lout" />
<vehicle depart="73" id="SflowRL.10" route="route_SflowRL.10" />
<route id="route_SflowLR.11" edges=" Lin Rout" />
<vehicle depart="77" id="SflowLR.11" route="route_SflowLR.11" />
<route id="route_SflowRL.11" edges=" Rin Lout" />
<vehicle depart="77" id="SflowRL.11" route="route_SflowRL.11" />
<route id="route_SflowLR.12" edges=" Lin Rout" />
<vehicle depart="84" id="SflowLR.12" route="route_SflowLR.12" />
<route id="route_SflowRL.12" edges=" Rin Lout" />
<vehicle depart="84" id="SflowRL.12" route="route_SflowRL.12" />
<route id="route_SflowUD.6" edges=" Uin Dout" />
<vehicle depart="84" id="SflowUD.6" route="route_SflowUD.6" />
<route id="route_SflowDU.6" edges=" Din Uout" />
<vehicle depart="84" id="SflowDU.6" route="route_SflowDU.6" />
<route id="route_SflowLU.4" edges=" Lin Uout" />
<vehicle depart="87" id="SflowLU.4" route="route_SflowLU.4" />
<route id="route_SflowRU.4" edges=" Rin Uout" />
<vehicle depart="87" id="SflowRU.4" route="route_SflowRU.4" />
<route id="route_SflowUL.2" edges=" Uin Lout" />
<vehicle depart="87" id="SflowUL.2" route="route_SflowUL.2" />
<route id="route_SflowDL.2" edges=" Din Lout" />
<vehicle depart="87" id="SflowDL.2" route="route_SflowDL.2" />
<route id="route_SflowLD.4" edges=" Lin Dout" />
<vehicle depart="90" id="SflowLD.4" route="route_SflowLD.4" />
<route id="route_SflowRD.4" edges=" Rin Dout" />
<vehicle depart="90" id="SflowRD.4" route="route_SflowRD.4" />
<route id="route_SflowUR.2" edges=" Uin Rout" />
<vehicle depart="90" id="SflowUR.2" route="route_SflowUR.2" />
<route id="route_SflowDR.2" edges=" Din Rout" />
<vehicle depart="90" id="SflowDR.2" route="route_SflowDR.2" />
<route id="route_SflowLR.13" edges=" Lin Rout" />
<vehicle depart="93" id="SflowLR.13" route="route_SflowLR.13" />
<route id="route_SflowRL.13" edges=" Rin Lout" />
<vehicle depart="93" id="SflowRL.13" route="route_SflowRL.13" />
<route id="route_SflowLR.14" edges=" Lin Rout" />
<vehicle depart="98" id="SflowLR.14" route="route_SflowLR.14" />
<route id="route_SflowRL.14" edges=" Rin Lout" />
<vehicle depart="98" id="SflowRL.14" route="route_SflowRL.14" />
<route id="route_SflowUD.7" edges=" Uin Dout" />
<vehicle depart="98" id="SflowUD.7" route="route_SflowUD.7" />
<route id="route_SflowDU.7" edges=" Din Uout" />
<vehicle depart="98" id="SflowDU.7" route="route_SflowDU.7" />
<route id="route_SflowLR.15" edges=" Lin Rout" />
<vehicle depart="105" id="SflowLR.15" route="route_SflowLR.15" />
<route id="route_SflowRL.15" edges=" Rin Lout" />
<vehicle depart="105" id="SflowRL.15" route="route_SflowRL.15" />
<route id="route_SflowLU.5" edges=" Lin Uout" />
<vehicle depart="108" id="SflowLU.5" route="route_SflowLU.5" />
<route id="route_SflowRU.5" edges=" Rin Uout" />
<vehicle depart="108" id="SflowRU.5" route="route_SflowRU.5" />
<route id="route_SflowLD.5" edges=" Lin Dout" />
<vehicle depart="111" id="SflowLD.5" route="route_SflowLD.5" />
<route id="route_SflowRD.5" edges=" Rin Dout" />
<vehicle depart="111" id="SflowRD.5" route="route_SflowRD.5" />
<route id="route_SflowUD.8" edges=" Uin Dout" />
<vehicle depart="112" id="SflowUD.8" route="route_SflowUD.8" />
<route id="route_SflowDU.8" edges=" Din Uout" />
<vehicle depart="112" id="SflowDU.8" route="route_SflowDU.8" />
<route id="route_SflowLR.16" edges=" Lin Rout" />
<vehicle depart="114" id="SflowLR.16" route="route_SflowLR.16" />
<route id="route_SflowRL.16" edges=" Rin Lout" />
<vehicle depart="114" id="SflowRL.16" route="route_SflowRL.16" />
<route id="route_SflowLR.17" edges=" Lin Rout" />
<vehicle depart="119" id="SflowLR.17" route="route_SflowLR.17" />
<route id="route_SflowRL.17" edges=" Rin Lout" />
<vehicle depart="119" id="SflowRL.17" route="route_SflowRL.17" />
<route id="route_SflowLR.18" edges=" Lin Rout" />
<vehicle depart="126" id="SflowLR.18" route="route_SflowLR.18" />
<route id="route_SflowRL.18" edges=" Rin Lout" />
<vehicle depart="126" id="SflowRL.18" route="route_SflowRL.18" />
<route id="route_SflowUD.9" edges=" Uin Dout" />
<vehicle depart="126" id="SflowUD.9" route="route_SflowUD.9" />
<route id="route_SflowDU.9" edges=" Din Uout" />
<vehicle depart="126" id="SflowDU.9" route="route_SflowDU.9" />
<route id="route_SflowLU.6" edges=" Lin Uout" />
<vehicle depart="129" id="SflowLU.6" route="route_SflowLU.6" />
<route id="route_SflowRU.6" edges=" Rin Uout" />
<vehicle depart="129" id="SflowRU.6" route="route_SflowRU.6" />
<route id="route_SflowUL.3" edges=" Uin Lout" />
<vehicle depart="129" id="SflowUL.3" route="route_SflowUL.3" />
<route id="route_SflowDL.3" edges=" Din Lout" />
<vehicle depart="129" id="SflowDL.3" route="route_SflowDL.3" />
<route id="route_SflowLD.6" edges=" Lin Dout" />
<vehicle depart="132" id="SflowLD.6" route="route_SflowLD.6" />
<route id="route_SflowRD.6" edges=" Rin Dout" />
<vehicle depart="132" id="SflowRD.6" route="route_SflowRD.6" />
<route id="route_SflowUR.3" edges=" Uin Rout" />
<vehicle depart="132" id="SflowUR.3" route="route_SflowUR.3" />
<route id="route_SflowDR.3" edges=" Din Rout" />
<vehicle depart="132" id="SflowDR.3" route="route_SflowDR.3" />
<route id="route_SflowLR.19" edges=" Lin Rout" />
<vehicle depart="135" id="SflowLR.19" route="route_SflowLR.19" />
<route id="route_SflowRL.19" edges=" Rin Lout" />
<vehicle depart="135" id="SflowRL.19" route="route_SflowRL.19" />
<route id="route_SflowLR.20" edges=" Lin Rout" />
<vehicle depart="140" id="SflowLR.20" route="route_SflowLR.20" />
<route id="route_SflowRL.20" edges=" Rin Lout" />
<vehicle depart="140" id="SflowRL.20" route="route_SflowRL.20" />
<route id="route_SflowUD.10" edges=" Uin Dout" />
<vehicle depart="140" id="SflowUD.10" route="route_SflowUD.10" />
<route id="route_SflowDU.10" edges=" Din Uout" />
<vehicle depart="140" id="SflowDU.10" route="route_SflowDU.10" />
<route id="route_SflowLR.21" edges=" Lin Rout" />
<vehicle depart="147" id="SflowLR.21" route="route_SflowLR.21" />
<route id="route_SflowRL.21" edges=" Rin Lout" />
<vehicle depart="147" id="SflowRL.21" route="route_SflowRL.21" />
<route id="route_SflowLU.7" edges=" Lin Uout" />
<vehicle depart="150" id="SflowLU.7" route="route_SflowLU.7" />
<route id="route_SflowRU.7" edges=" Rin Uout" />
<vehicle depart="150" id="SflowRU.7" route="route_SflowRU.7" />
<route id="route_SflowLD.7" edges=" Lin Dout" />
<vehicle depart="153" id="SflowLD.7" route="route_SflowLD.7" />
<route id="route_SflowRD.7" edges=" Rin Dout" />
<vehicle depart="153" id="SflowRD.7" route="route_SflowRD.7" />
<route id="route_SflowUD.11" edges=" Uin Dout" />
<vehicle depart="154" id="SflowUD.11" route="route_SflowUD.11" />
<route id="route_SflowDU.11" edges=" Din Uout" />
<vehicle depart="154" id="SflowDU.11" route="route_SflowDU.11" />
<route id="route_SflowLR.22" edges=" Lin Rout" />
<vehicle depart="156" id="SflowLR.22" route="route_SflowLR.22" />
<route id="route_SflowRL.22" edges=" Rin Lout" />
<vehicle depart="156" id="SflowRL.22" route="route_SflowRL.22" />
<route id="route_SflowLR.23" edges=" Lin Rout" />
<vehicle depart="161" id="SflowLR.23" route="route_SflowLR.23" />
<route id="route_SflowRL.23" edges=" Rin Lout" />
<vehicle depart="161" id="SflowRL.23" route="route_SflowRL.23" />
<route id="route_SflowLR.24" edges=" Lin Rout" />
<vehicle depart="168" id="SflowLR.24" route="route_SflowLR.24" />
<route id="route_SflowRL.24" edges=" Rin Lout" />
<vehicle depart="168" id="SflowRL.24" route="route_SflowRL.24" />
<route id="route_SflowUD.12" edges=" Uin Dout" />
<vehicle depart="168" id="SflowUD.12" route="route_SflowUD.12" />
<route id="route_SflowDU.12" edges=" Din Uout" />
<vehicle depart="168" id="SflowDU.12" route="route_SflowDU.12" />
<route id="route_SflowLU.8" edges=" Lin Uout" />
<vehicle depart="171" id="SflowLU.8" route="route_SflowLU.8" />
<route id="route_SflowRU.8" edges=" Rin Uout" />
<vehicle depart="171" id="SflowRU.8" route="route_SflowRU.8" />
<route id="route_SflowUL.4" edges=" Uin Lout" />
<vehicle depart="171" id="SflowUL.4" route="route_SflowUL.4" />
<route id="route_SflowDL.4" edges=" Din Lout" />
<vehicle depart="171" id="SflowDL.4" route="route_SflowDL.4" />
<route id="route_SflowLD.8" edges=" Lin Dout" />
<vehicle depart="174" id="SflowLD.8" route="route_SflowLD.8" />
<route id="route_SflowRD.8" edges=" Rin Dout" />
<vehicle depart="174" id="SflowRD.8" route="route_SflowRD.8" />
<route id="route_SflowUR.4" edges=" Uin Rout" />
<vehicle depart="174" id="SflowUR.4" route="route_SflowUR.4" />
<route id="route_SflowDR.4" edges=" Din Rout" />
<vehicle depart="174" id="SflowDR.4" route="route_SflowDR.4" />
<route id="route_SflowLR.25" edges=" Lin Rout" />
<vehicle depart="177" id="SflowLR.25" route="route_SflowLR.25" />
<route id="route_SflowRL.25" edges=" Rin Lout" />
<vehicle depart="177" id="SflowRL.25" route="route_SflowRL.25" />
<route id="route_SflowLR.26" edges=" Lin Rout" />
<vehicle depart="182" id="SflowLR.26" route="route_SflowLR.26" />
<route id="route_SflowRL.26" edges=" Rin Lout" />
<vehicle depart="182" id="SflowRL.26" route="route_SflowRL.26" />
<route id="route_SflowUD.13" edges=" Uin Dout" />
<vehicle depart="182" id="SflowUD.13" route="route_SflowUD.13" />
<route id="route_SflowDU.13" edges=" Din Uout" />
<vehicle depart="182" id="SflowDU.13" route="route_SflowDU.13" />
<route id="route_SflowLR.27" edges=" Lin Rout" />
<vehicle depart="189" id="SflowLR.27" route="route_SflowLR.27" />
<route id="route_SflowRL.27" edges=" Rin Lout" />
<vehicle depart="189" id="SflowRL.27" route="route_SflowRL.27" />
<route id="route_SflowLU.9" edges=" Lin Uout" />
<vehicle depart="192" id="SflowLU.9" route="route_SflowLU.9" />
<route id="route_SflowRU.9" edges=" Rin Uout" />
<vehicle depart="192" id="SflowRU.9" route="route_SflowRU.9" />
<route id="route_SflowLD.9" edges=" Lin Dout" />
<vehicle depart="195" id="SflowLD.9" route="route_SflowLD.9" />
<route id="route_SflowRD.9" edges=" Rin Dout" />
<vehicle depart="195" id="SflowRD.9" route="route_SflowRD.9" />
<route id="route_SflowUD.14" edges=" Uin Dout" />
<vehicle depart="196" id="SflowUD.14" route="route_SflowUD.14" />
<route id="route_SflowDU.14" edges=" Din Uout" />
<vehicle depart="196" id="SflowDU.14" route="route_SflowDU.14" />
<route id="route_SflowLR.28" edges=" Lin Rout" />
<vehicle depart="198" id="SflowLR.28" route="route_SflowLR.28" />
<route id="route_SflowRL.28" edges=" Rin Lout" />
<vehicle depart="198" id="SflowRL.28" route="route_SflowRL.28" />
<route id="route_SflowLR.29" edges=" Lin Rout" />
<vehicle depart="203" id="SflowLR.29" route="route_SflowLR.29" />
<route id="route_SflowRL.29" edges=" Rin Lout" />
<vehicle depart="203" id="SflowRL.29" route="route_SflowRL.29" />
<route id="route_SflowLR.30" edges=" Lin Rout" />
<vehicle depart="210" id="SflowLR.30" route="route_SflowLR.30" />
<route id="route_SflowRL.30" edges=" Rin Lout" />
<vehicle depart="210" id="SflowRL.30" route="route_SflowRL.30" />
<route id="route_SflowUD.15" edges=" Uin Dout" />
<vehicle depart="210" id="SflowUD.15" route="route_SflowUD.15" />
<route id="route_SflowDU.15" edges=" Din Uout" />
<vehicle depart="210" id="SflowDU.15" route="route_SflowDU.15" />
<route id="route_SflowLU.10" edges=" Lin Uout" />
<vehicle depart="213" id="SflowLU.10" route="route_SflowLU.10" />
<route id="route_SflowRU.10" edges=" Rin Uout" />
<vehicle depart="213" id="SflowRU.10" route="route_SflowRU.10" />
<route id="route_SflowUL.5" edges=" Uin Lout" />
<vehicle depart="213" id="SflowUL.5" route="route_SflowUL.5" />
<route id="route_SflowDL.5" edges=" Din Lout" />
<vehicle depart="213" id="SflowDL.5" route="route_SflowDL.5" />
<route id="route_SflowLD.10" edges=" Lin Dout" />
<vehicle depart="216" id="SflowLD.10" route="route_SflowLD.10" />
<route id="route_SflowRD.10" edges=" Rin Dout" />
<vehicle depart="216" id="SflowRD.10" route="route_SflowRD.10" />
<route id="route_SflowUR.5" edges=" Uin Rout" />
<vehicle depart="216" id="SflowUR.5" route="route_SflowUR.5" />
<route id="route_SflowDR.5" edges=" Din Rout" />
<vehicle depart="216" id="SflowDR.5" route="route_SflowDR.5" />
<route id="route_SflowLR.31" edges=" Lin Rout" />
<vehicle depart="219" id="SflowLR.31" route="route_SflowLR.31" />
<route id="route_SflowRL.31" edges=" Rin Lout" />
<vehicle depart="219" id="SflowRL.31" route="route_SflowRL.31" />
<route id="route_SflowLR.32" edges=" Lin Rout" />
<vehicle depart="224" id="SflowLR.32" route="route_SflowLR.32" />
<route id="route_SflowRL.32" edges=" Rin Lout" />
<vehicle depart="224" id="SflowRL.32" route="route_SflowRL.32" />
<route id="route_SflowUD.16" edges=" Uin Dout" />
<vehicle depart="224" id="SflowUD.16" route="route_SflowUD.16" />
<route id="route_SflowDU.16" edges=" Din Uout" />
<vehicle depart="224" id="SflowDU.16" route="route_SflowDU.16" />
<route id="route_SflowLR.33" edges=" Lin Rout" />
<vehicle depart="231" id="SflowLR.33" route="route_SflowLR.33" />
<route id="route_SflowRL.33" edges=" Rin Lout" />
<vehicle depart="231" id="SflowRL.33" route="route_SflowRL.33" />
<route id="route_SflowLU.11" edges=" Lin Uout" />
<vehicle depart="234" id="SflowLU.11" route="route_SflowLU.11" />
<route id="route_SflowRU.11" edges=" Rin Uout" />
<vehicle depart="234" id="SflowRU.11" route="route_SflowRU.11" />
<route id="route_SflowLD.11" edges=" Lin Dout" />
<vehicle depart="237" id="SflowLD.11" route="route_SflowLD.11" />
<route id="route_SflowRD.11" edges=" Rin Dout" />
<vehicle depart="237" id="SflowRD.11" route="route_SflowRD.11" />
<route id="route_SflowUD.17" edges=" Uin Dout" />
<vehicle depart="238" id="SflowUD.17" route="route_SflowUD.17" />
<route id="route_SflowDU.17" edges=" Din Uout" />
<vehicle depart="238" id="SflowDU.17" route="route_SflowDU.17" />
<route id="route_SflowLR.34" edges=" Lin Rout" />
<vehicle depart="240" id="SflowLR.34" route="route_SflowLR.34" />
<route id="route_SflowRL.34" edges=" Rin Lout" />
<vehicle depart="240" id="SflowRL.34" route="route_SflowRL.34" />
<route id="route_SflowLR.35" edges=" Lin Rout" />
<vehicle depart="245" id="SflowLR.35" route="route_SflowLR.35" />
<route id="route_SflowRL.35" edges=" Rin Lout" />
<vehicle depart="245" id="SflowRL.35" route="route_SflowRL.35" />
<route id="route_SflowLR.36" edges=" Lin Rout" />
<vehicle depart="252" id="SflowLR.36" route="route_SflowLR.36" />
<route id="route_SflowRL.36" edges=" Rin Lout" />
<vehicle depart="252" id="SflowRL.36" route="route_SflowRL.36" />
<route id="route_SflowUD.18" edges=" Uin Dout" />
<vehicle depart="252" id="SflowUD.18" route="route_SflowUD.18" />
<route id="route_SflowDU.18" edges=" Din Uout" />
<vehicle depart="252" id="SflowDU.18" route="route_SflowDU.18" />
<route id="route_SflowLU.12" edges=" Lin Uout" />
<vehicle depart="255" id="SflowLU.12" route="route_SflowLU.12" />
<route id="route_SflowRU.12" edges=" Rin Uout" />
<vehicle depart="255" id="SflowRU.12" route="route_SflowRU.12" />
<route id="route_SflowUL.6" edges=" Uin Lout" />
<vehicle depart="255" id="SflowUL.6" route="route_SflowUL.6" />
<route id="route_SflowDL.6" edges=" Din Lout" />
<vehicle depart="255" id="SflowDL.6" route="route_SflowDL.6" />
<route id="route_SflowLD.12" edges=" Lin Dout" />
<vehicle depart="258" id="SflowLD.12" route="route_SflowLD.12" />
<route id="route_SflowRD.12" edges=" Rin Dout" />
<vehicle depart="258" id="SflowRD.12" route="route_SflowRD.12" />
<route id="route_SflowUR.6" edges=" Uin Rout" />
<vehicle depart="258" id="SflowUR.6" route="route_SflowUR.6" />
<route id="route_SflowDR.6" edges=" Din Rout" />
<vehicle depart="258" id="SflowDR.6" route="route_SflowDR.6" />
<route id="route_SflowRL.37" edges=" Rin Lout" />
<vehicle depart="260" id="SflowRL.37" route="route_SflowRL.37" />
<route id="route_SflowLR.37" edges=" Lin Rout" />
<vehicle depart="261" id="SflowLR.37" route="route_SflowLR.37" />
<route id="route_SflowLR.38" edges=" Lin Rout" />
<vehicle depart="266" id="SflowLR.38" route="route_SflowLR.38" />
<route id="route_SflowRL.38" edges=" Rin Lout" />
<vehicle depart="266" id="SflowRL.38" route="route_SflowRL.38" />
<route id="route_SflowUD.19" edges=" Uin Dout" />
<vehicle depart="266" id="SflowUD.19" route="route_SflowUD.19" />
<route id="route_SflowDU.19" edges=" Din Uout" />
<vehicle depart="266" id="SflowDU.19" route="route_SflowDU.19" />
<route id="route_SflowLR.39" edges=" Lin Rout" />
<vehicle depart="273" id="SflowLR.39" route="route_SflowLR.39" />
<route id="route_SflowRL.39" edges=" Rin Lout" />
<vehicle depart="273" id="SflowRL.39" route="route_SflowRL.39" />
<route id="route_SflowLU.13" edges=" Lin Uout" />
<vehicle depart="276" id="SflowLU.13" route="route_SflowLU.13" />
<route id="route_SflowRU.13" edges=" Rin Uout" />
<vehicle depart="276" id="SflowRU.13" route="route_SflowRU.13" />
<route id="route_SflowLD.13" edges=" Lin Dout" />
<vehicle depart="279" id="SflowLD.13" route="route_SflowLD.13" />
<route id="route_SflowRD.13" edges=" Rin Dout" />
<vehicle depart="279" id="SflowRD.13" route="route_SflowRD.13" />
<route id="route_SflowUD.20" edges=" Uin Dout" />
<vehicle depart="280" id="SflowUD.20" route="route_SflowUD.20" />
<route id="route_SflowDU.20" edges=" Din Uout" />
<vehicle depart="280" id="SflowDU.20" route="route_SflowDU.20" />
<route id="route_SflowLR.40" edges=" Lin Rout" />
<vehicle depart="282" id="SflowLR.40" route="route_SflowLR.40" />
<route id="route_SflowRL.40" edges=" Rin Lout" />
<vehicle depart="282" id="SflowRL.40" route="route_SflowRL.40" />
<route id="route_SflowLR.41" edges=" Lin Rout" />
<vehicle depart="287" id="SflowLR.41" route="route_SflowLR.41" />
<route id="route_SflowRL.41" edges=" Rin Lout" />
<vehicle depart="287" id="SflowRL.41" route="route_SflowRL.41" />
<route id="route_SflowLR.42" edges=" Lin Rout" />
<vehicle depart="294" id="SflowLR.42" route="route_SflowLR.42" />
<route id="route_SflowRL.42" edges=" Rin Lout" />
<vehicle depart="294" id="SflowRL.42" route="route_SflowRL.42" />
<route id="route_SflowUD.21" edges=" Uin Dout" />
<vehicle depart="294" id="SflowUD.21" route="route_SflowUD.21" />
<route id="route_SflowDU.21" edges=" Din Uout" />
<vehicle depart="294" id="SflowDU.21" route="route_SflowDU.21" />
<route id="route_SflowRU.14" edges=" Rin Uout" />
<vehicle depart="296" id="SflowRU.14" route="route_SflowRU.14" />
<route id="route_SflowLU.14" edges=" Lin Uout" />
<vehicle depart="297" id="SflowLU.14" route="route_SflowLU.14" />
<route id="route_SflowUL.7" edges=" Uin Lout" />
<vehicle depart="297" id="SflowUL.7" route="route_SflowUL.7" />
<route id="route_SflowDL.7" edges=" Din Lout" />
<vehicle depart="297" id="SflowDL.7" route="route_SflowDL.7" />
<route id="route_SflowLD.14" edges=" Lin Dout" />
<vehicle depart="300" id="SflowLD.14" route="route_SflowLD.14" />
<route id="route_SflowRD.14" edges=" Rin Dout" />
<vehicle depart="300" id="SflowRD.14" route="route_SflowRD.14" />
<route id="route_SflowUR.7" edges=" Uin Rout" />
<vehicle depart="300" id="SflowUR.7" route="route_SflowUR.7" />
<route id="route_SflowDR.7" edges=" Din Rout" />
<vehicle depart="300" id="SflowDR.7" route="route_SflowDR.7" />
<route id="route_SflowLR.43" edges=" Lin Rout" />
<vehicle depart="303" id="SflowLR.43" route="route_SflowLR.43" />
<route id="route_SflowRL.43" edges=" Rin Lout" />
<vehicle depart="303" id="SflowRL.43" route="route_SflowRL.43" />
<route id="route_SflowLR.44" edges=" Lin Rout" />
<vehicle depart="308" id="SflowLR.44" route="route_SflowLR.44" />
<route id="route_SflowRL.44" edges=" Rin Lout" />
<vehicle depart="308" id="SflowRL.44" route="route_SflowRL.44" />
<route id="route_SflowUD.22" edges=" Uin Dout" />
<vehicle depart="308" id="SflowUD.22" route="route_SflowUD.22" />
<route id="route_SflowDU.22" edges=" Din Uout" />
<vehicle depart="308" id="SflowDU.22" route="route_SflowDU.22" />
<route id="route_SflowLR.45" edges=" Lin Rout" />
<vehicle depart="315" id="SflowLR.45" route="route_SflowLR.45" />
<route id="route_SflowRL.45" edges=" Rin Lout" />
<vehicle depart="315" id="SflowRL.45" route="route_SflowRL.45" />
<route id="route_SflowLU.15" edges=" Lin Uout" />
<vehicle depart="318" id="SflowLU.15" route="route_SflowLU.15" />
<route id="route_SflowRU.15" edges=" Rin Uout" />
<vehicle depart="318" id="SflowRU.15" route="route_SflowRU.15" />
<route id="route_SflowLD.15" edges=" Lin Dout" />
<vehicle depart="321" id="SflowLD.15" route="route_SflowLD.15" />
<route id="route_SflowRD.15" edges=" Rin Dout" />
<vehicle depart="321" id="SflowRD.15" route="route_SflowRD.15" />
<route id="route_SflowUD.23" edges=" Uin Dout" />
<vehicle depart="322" id="SflowUD.23" route="route_SflowUD.23" />
<route id="route_SflowDU.23" edges=" Din Uout" />
<vehicle depart="322" id="SflowDU.23" route="route_SflowDU.23" />
<route id="route_SflowLR.46" edges=" Lin Rout" />
<vehicle depart="324" id="SflowLR.46" route="route_SflowLR.46" />
<route id="route_SflowRL.46" edges=" Rin Lout" />
<vehicle depart="324" id="SflowRL.46" route="route_SflowRL.46" />
<route id="route_SflowLR.47" edges=" Lin Rout" />
<vehicle depart="329" id="SflowLR.47" route="route_SflowLR.47" />
<route id="route_SflowRL.47" edges=" Rin Lout" />
<vehicle depart="329" id="SflowRL.47" route="route_SflowRL.47" />
<route id="route_SflowLR.48" edges=" Lin Rout" />
<vehicle depart="336" id="SflowLR.48" route="route_SflowLR.48" />
<route id="route_SflowRL.48" edges=" Rin Lout" />
<vehicle depart="336" id="SflowRL.48" route="route_SflowRL.48" />
<route id="route_SflowUD.24" edges=" Uin Dout" />
<vehicle depart="336" id="SflowUD.24" route="route_SflowUD.24" />
<route id="route_SflowDU.24" edges=" Din Uout" />
<vehicle depart="336" id="SflowDU.24" route="route_SflowDU.24" />
<route id="route_SflowLU.16" edges=" Lin Uout" />
<vehicle depart="339" id="SflowLU.16" route="route_SflowLU.16" />
<route id="route_SflowRU.16" edges=" Rin Uout" />
<vehicle depart="339" id="SflowRU.16" route="route_SflowRU.16" />
<route id="route_SflowUL.8" edges=" Uin Lout" />
<vehicle depart="339" id="SflowUL.8" route="route_SflowUL.8" />
<route id="route_SflowDL.8" edges=" Din Lout" />
<vehicle depart="339" id="SflowDL.8" route="route_SflowDL.8" />
<route id="route_SflowLD.16" edges=" Lin Dout" />
<vehicle depart="342" id="SflowLD.16" route="route_SflowLD.16" />
<route id="route_SflowRD.16" edges=" Rin Dout" />
<vehicle depart="342" id="SflowRD.16" route="route_SflowRD.16" />
<route id="route_SflowUR.8" edges=" Uin Rout" />
<vehicle depart="342" id="SflowUR.8" route="route_SflowUR.8" />
<route id="route_SflowDR.8" edges=" Din Rout" />
<vehicle depart="342" id="SflowDR.8" route="route_SflowDR.8" />
<route id="route_SflowLR.49" edges=" Lin Rout" />
<vehicle depart="345" id="SflowLR.49" route="route_SflowLR.49" />
<route id="route_SflowRL.49" edges=" Rin Lout" />
<vehicle depart="345" id="SflowRL.49" route="route_SflowRL.49" />
<route id="route_SflowLR.50" edges=" Lin Rout" />
<vehicle depart="350" id="SflowLR.50" route="route_SflowLR.50" />
<route id="route_SflowRL.50" edges=" Rin Lout" />
<vehicle depart="350" id="SflowRL.50" route="route_SflowRL.50" />
<route id="route_SflowUD.25" edges=" Uin Dout" />
<vehicle depart="350" id="SflowUD.25" route="route_SflowUD.25" />
<route id="route_SflowDU.25" edges=" Din Uout" />
<vehicle depart="350" id="SflowDU.25" route="route_SflowDU.25" />
<route id="route_SflowLR.51" edges=" Lin Rout" />
<vehicle depart="357" id="SflowLR.51" route="route_SflowLR.51" />
<route id="route_SflowRL.51" edges=" Rin Lout" />
<vehicle depart="357" id="SflowRL.51" route="route_SflowRL.51" />
<route id="route_SflowLU.17" edges=" Lin Uout" />