<?xml version="1.0" encoding="UTF-8"?>
<routes xmlns:xsi="http://www.w3.org/2001/XMLSchema-instance" xsi:noNamespaceSchemaLocation="http://sumo.dlr.de/xsd/routes_file.xsd">

<vType id="noVar" speedFactor="1.0" speedDev="0.0"/>
<trip type="noVar" depart="0" id="SflowLR.0" from="Lin" to="Rout"/>
<trip type="noVar" depart="0" id="SflowRL.0" from="Rin" to="Lout"/>
<trip type="noVar" depart="0" id="SflowUD.0" from="Uin" to="Dout"/>
<trip type="noVar" depart="0" id="SflowDU.0" from="Din" to="Uout"/>
<trip type="noVar" depart="4" id="SflowLR.1" from="Lin" to="Rout"/>
<trip type="noVar" depart="4" id="SflowRL.1" from="Rin" to="Lout"/>
<trip type="noVar" depart="6" id="SflowUD.1" from="Uin" to="Dout"/>
<trip type="noVar" depart="6" id="SflowDU.1" from="Din" to="Uout"/>
<trip type="noVar" depart="8" id="SflowLR.2" from="Lin" to="Rout"/>
<trip type="noVar" depart="8" id="SflowRL.2" from="Rin" to="Lout"/>
<trip type="noVar" depart="12" id="SflowLR.3" from="Lin" to="Rout"/>
<trip type="noVar" depart="12" id="SflowRL.3" from="Rin" to="Lout"/>
<trip type="noVar" depart="13" id="SflowUD.2" from="Uin" to="Dout"/>
<trip type="noVar" depart="13" id="SflowDU.2" from="Din" to="Uout"/>
<trip type="noVar" depart="16" id="SflowLR.4" from="Lin" to="Rout"/>
<trip type="noVar" depart="16" id="SflowRL.4" from="Rin" to="Lout"/>
<trip type="noVar" depart="20" id="SflowUD.3" from="Uin" to="Dout"/>
<trip type="noVar" depart="20" id="SflowDU.3" from="Din" to="Uout"/>
<trip type="noVar" depart="21" id="SflowLR.5" from="Lin" to="Rout"/>
<trip type="noVar" depart="21" id="SflowRL.5" from="Rin" to="Lout"/>
<trip type="noVar" depart="25" id="SflowLR.6" from="Lin" to="Rout"/>
<trip type="noVar" depart="25" id="SflowRL.6" from="Rin" to="Lout"/>
<trip type="noVar" depart="26" id="SflowUD.4" from="Uin" to="Dout"/>
<trip type="noVar" depart="26" id="SflowDU.4" from="Din" to="Uout"/>
<trip type="noVar" depart="29" id="SflowLR.7" from="Lin" to="Rout"/>
<trip type="noVar" depart="29" id="SflowRL.7" from="Rin" to="Lout"/>
<trip type="noVar" depart="33" id="SflowUD.5" from="Uin" to="Dout"/>
<trip type="noVar" depart="33" id="SflowDU.5" from="Din" to="Uout"/>
<trip type="noVar" depart="33" id="SflowLR.8" from="Lin" to="Rout"/>
<trip type="noVar" depart="33" id="SflowRL.8" from="Rin" to="Lout"/>
<trip type="noVar" depart="37" id="SflowLR.9" from="Lin" to="Rout"/>
<trip type="noVar" depart="37" id="SflowRL.9" from="Rin" to="Lout"/>
<trip type="noVar" depart="40" id="SflowUD.6" from="Uin" to="Dout"/>
<trip type="noVar" depart="40" id="SflowDU.6" from="Din" to="Uout"/>
<trip type="noVar" depart="42" id="SflowLR.10" from="Lin" to="Rout"/>
<trip type="noVar" depart="42" id="SflowRL.10" from="Rin" to="Lout"/>
<trip type="noVar" depart="46" id="SflowLR.11" from="Lin" to="Rout"/>
<trip type="noVar" depart="46" id="SflowRL.11" from="Rin" to="Lout"/>
<trip type="noVar" depart="46" id="SflowUD.7" from="Uin" to="Dout"/>
<trip type="noVar" depart="46" id="SflowDU.7" from="Din" to="Uout"/>
<trip type="noVar" depart="50" id="SflowLR.12" from="Lin" to="Rout"/>
<trip type="noVar" depart="50" id="SflowRL.12" from="Rin" to="Lout"/>
<trip type="noVar" depart="53" id="SflowUD.8" from="Uin" to="Dout"/>
<trip type="noVar" depart="53" id="SflowDU.8" from="Din" to="Uout"/>
<trip type="noVar" depart="54" id="SflowLR.13" from="Lin" to="Rout"/>
<trip type="noVar" depart="54" id="SflowRL.13" from="Rin" to="Lout"/>
<trip type="noVar" depart="59" id="SflowLR.14" from="Lin" to="Rout"/>
<trip type="noVar" depart="59" id="SflowRL.14" from="Rin" to="Lout"/>
<trip type="noVar" depart="60" id="SflowUD.9" from="Uin" to="Dout"/>
<trip type="noVar" depart="60" id="SflowDU.9" from="Din" to="Uout"/>
<trip type="noVar" depart="63" id="SflowLR.15" from="Lin" to="Rout"/>
<trip type="noVar" depart="63" id="SflowRL.15" from="Rin" to="Lout"/>
<trip type="noVar" depart="66" id="SflowUD.10" from="Uin" to="Dout"/>
<trip type="noVar" depart="66" id="SflowDU.10" from="Din" to="Uout"/>
<trip type="noVar" depart="67" id="SflowLR.16" from="Lin" to="Rout"/>
<trip type="noVar" depart="67" id="SflowRL.16" from="Rin" to="Lout"/>
<trip type="noVar" depart="71" id="SflowLR.17" from="Lin" to="Rout"/>
<trip type="noVar" depart="71" id="SflowRL.17" from="Rin" to="Lout"/>
<trip type="noVar" depart="73" id="SflowUD.11" from="Uin" to="Dout"/>
<trip type="noVar" depart="73" id="SflowDU.11" from="Din" to="Uout"/>
<trip type="noVar" depart="75" id="SflowLR.18" from="Lin" to="Rout"/>
<trip type="noVar" depart="75" id="SflowRL.18" from="Rin" to="Lout"/>
<trip type="noVar" depart="80" id="SflowLR.19" from="Lin" to="Rout"/>
<trip type="noVar" depart="80" id="SflowRL.19" from="Rin" to="Lout"/>
<trip type="noVar" depart="80" id="SflowUD.12" from="Uin" to="Dout"/>
<trip type="noVar" depart="80" id="SflowDU.12" from="Din" to="Uout"/>
<trip type="noVar" depart="84" id="SflowLR.20" from="Lin" to="Rout"/>
<trip type="noVar" depart="84" id="SflowRL.20" from="Rin" to="Lout"/>
<trip type="noVar" depart="86" id="SflowUD.13" from="Uin" to="Dout"/>
<trip type="noVar" depart="86" id="SflowDU.13" from="Din" to="Uout"/>
<trip type="noVar" depart="88" id="SflowLR.21" from="Lin" to="Rout"/>
<trip type="noVar" depart="88" id="SflowRL.21" from="Rin" to="Lout"/>
<trip type="noVar" depart="92" id="SflowLR.22" from="Lin" to="Rout"/>
<trip type="noVar" depart="92" id="SflowRL.22" from="Rin" to="Lout"/>
<trip type="noVar" depart="93" id="SflowUD.14" from="Uin" to="Dout"/>
<trip type="noVar" depart="93" id="SflowDU.14" from="Din" to="Uout"/>
<trip type="noVar" depart="97" id="SflowLR.23" from="Lin" to="Rout"/>
<trip type="noVar" depart="97" id="SflowRL.23" from="Rin" to="Lout"/>
<trip type="noVar" depart="100" id="SflowUD.15" from="Uin" to="Dout"/>
<trip type="noVar" depart="100" id="SflowDU.15" from="Din" to="Uout"/>
<trip type="noVar" depart="101" id="SflowLR.24" from="Lin" to="Rout"/>
<trip type="noVar" depart="101" id="SflowRL.24" from="Rin" to="Lout"/>
<trip type="noVar" depart="105" id="SflowLR.25" from="Lin" to="Rout"/>
<trip type="noVar" depart="105" id="SflowRL.25" from="Rin" to="Lout"/>
<trip type="noVar" depart="107" id="SflowUD.16" from="Uin" to="Dout"/>
<trip type="noVar" depart="107" id="SflowDU.16" from="Din" to="Uout"/>
<trip type="noVar" depart="109" id="SflowLR.26" from="Lin" to="Rout"/>
<trip type="noVar" depart="109" id="SflowRL.26" from="Rin" to="Lout"/>
<trip type="noVar" depart="113" id="SflowUD.17" from="Uin" to="Dout"/>
<trip type="noVar" depart="113" id="SflowDU.17" from="Din" to="Uout"/>
<trip type="noVar" depart="113" id="SflowLR.27" from="Lin" to="Rout"/>
<trip type="noVar" depart="113" id="SflowRL.27" from="Rin" to="Lout"/>
<trip type="noVar" depart="118" id="SflowLR.28" from="Lin" to="Rout"/>
<trip type="noVar" depart="118" id="SflowRL.28" from="Rin" to="Lout"/>
<trip type="noVar" depart="120" id="SflowUD.18" from="Uin" to="Dout"/>
<trip type="noVar" depart="120" id="SflowDU.18" from="Din" to="Uout"/>
<trip type="noVar" depart="122" id="SflowLR.29" from="Lin" to="Rout"/>
<trip type="noVar" depart="122" id="SflowRL.29" from="Rin" to="Lout"/>
<trip type="noVar" depart="126" id="SflowLR.30" from="Lin" to="Rout"/>
<trip type="noVar" depart="126" id="SflowRL.30" from="Rin" to="Lout"/>
<trip type="noVar" depart="127" id="SflowUD.19" from="Uin" to="Dout"/>
<trip type="noVar" depart="127" id="SflowDU.19" from="Din" to="Uout"/>
<trip type="noVar" depart="130" id="SflowLR.31" from="Lin" to="Rout"/>
<trip type="noVar" depart="130" id="SflowRL.31" from="Rin" to="Lout"/>
<trip type="noVar" depart="133" id="SflowUD.20" from="Uin" to="Dout"/>
<trip type="noVar" depart="133" id="SflowDU.20" from="Din" to="Uout"/>
<trip type="noVar" depart="135" id="SflowLR.32" from="Lin" to="Rout"/>
<trip type="noVar" depart="135" id="SflowRL.32" from="Rin" to="Lout"/>
<trip type="noVar" depart="139" id="SflowLR.33" from="Lin" to="Rout"/>
<trip type="noVar" depart="139" id="SflowRL.33" from="Rin" to="Lout"/>
<trip type="noVar" depart="140" id="SflowUD.21" from="Uin" to="Dout"/>
<trip type="noVar" depart="140" id="SflowDU.21" from="Din" to="Uout"/>
<trip type="noVar" depart="143" id="SflowLR.34" from="Lin" to="Rout"/>
<trip type="noVar" depart="143" id="SflowRL.34" from="Rin" to="Lout"/>
<trip type="noVar" depart="147" id="SflowUD.22" from="Uin" to="Dout"/>
<trip type="noVar" depart="147" id="SflowDU.22" from="Din" to="Uout"/>
<trip type="noVar" depart="147" id="SflowLR.35" from="Lin" to="Rout"/>
<trip type="noVar" depart="147" id="SflowRL.35" from="Rin" to="Lout"/>
<trip type="noVar" depart="151" id="SflowLR.36" from="Lin" to="Rout"/>
<trip type="noVar" depart="151" id="SflowRL.36" from="Rin" to="Lout"/>
<trip type="noVar" depart="153" id="SflowUD.23" from="Uin" to="Dout"/>
<trip type="noVar" depart="153" id="SflowDU.23" from="Din" to="Uout"/>
<trip type="noVar" depart="156" id="SflowLR.37" from="Lin" to="Rout"/>
<trip type="noVar" depart="156" id="SflowRL.37" from="Rin" to="Lout"/>
<trip type="noVar" depart="160" id="SflowLR.38" from="Lin" to="Rout"/>
<trip type="noVar" depart="160" id="SflowRL.38" from="Rin" to="Lout"/>
<trip type="noVar" depart="160" id="SflowUD.24" from="Uin" to="Dout"/>
<trip type="noVar" depart="160" id="SflowDU.24" from="Din" to="Uout"/>
<trip type="noVar" depart="164" id="SflowLR.39" from="Lin" to="Rout"/>
<trip type="noVar" depart="164" id="SflowRL.39" from="Rin" to="Lout"/>
<trip type="noVar" depart="167" id="SflowUD.25" from="Uin" to="Dout"/>
<trip type="noVar" depart="167" id="SflowDU.25" from="Din" to="Uout"/>
<trip type="noVar" depart="168" id="SflowLR.40" from="Lin" to="Rout"/>
<trip type="noVar" depart="168" id="SflowRL.40" from="Rin" to="Lout"/>
<trip type="noVar" depart="172" id="SflowLR.41" from="Lin" to="Rout"/>
<trip type="noVar" depart="172" id="SflowRL.41" from="Rin" to="Lout"/>
<trip type="noVar" depart="173" id="SflowUD.26" from="Uin" to="Dout"/>
<trip type="noVar" depart="173" id="SflowDU.26" from="Din" to="Uout"/>
<trip type="noVar" depart="177" id="SflowLR.42" from="Lin" to="Rout"/>
<trip type="noVar" depart="177" id="SflowRL.42" from="Rin" to="Lout"/>
<trip type="noVar" depart="180" id="SflowUD.27" from="Uin" to="Dout"/>
<trip type="noVar" depart="180" id="SflowDU.27" from="Din" to="Uout"/>
<trip type="noVar" depart="181" id="SflowLR.43" from="Lin" to="Rout"/>
<trip type="noVar" depart="181" id="SflowRL.43" from="Rin" to="Lout"/>
<trip type="noVar" depart="185" id="SflowLR.44" from="Lin" to="Rout"/>
<trip type="noVar" depart="185" id="SflowRL.44" from="Rin" to="Lout"/>
<trip type="noVar" depart="187" id="SflowUD.28" from="Uin" to="Dout"/>
<trip type="noVar" depart="187" id="SflowDU.28" from="Din" to="Uout"/>
<trip type="noVar" depart="189" id="SflowLR.45" from="Lin" to="Rout"/>
<trip type="noVar" depart="189" id="SflowRL.45" from="Rin" to="Lout"/>
<trip type="noVar" depart="193" id="SflowUD.29" from="Uin" to="Dout"/>
<trip type="noVar" depart="193" id="SflowDU.29" from="Din" to="Uout"/>
<trip type="noVar" depart="194" id="SflowLR.46" from="Lin" to="Rout"/>
<trip type="noVar" depart="194" id="SflowRL.46" from="Rin" to="Lout"/>
<trip type="noVar" depart="198" id="SflowLR.47" from="Lin" to="Rout"/>
<trip type="noVar" depart="198" id="SflowRL.47" from="Rin" to="Lout"/>
<trip type="noVar" depart="200" id="SflowUD.30" from="Uin" to="Dout"/>
<trip type="noVar" depart="200" id="SflowDU.30" from="Din" to="Uout"/>
<trip type="noVar" depart="202" id="SflowLR.48" from="Lin" to="Rout"/>
<trip type="noVar" depart="202" id="SflowRL.48" from="Rin" to="Lout"/>
<trip type="noVar" depart="206" id="SflowLR.49" from="Lin" to="Rout"/>
<trip type="noVar" depart="206" id="SflowRL.49" from="Rin" to="Lout"/>
<trip type="noVar" depart="207" id="SflowUD.31" from="Uin" to="Dout"/>
<trip type="noVar" depart="207" id="SflowDU.31" from="Din" to="Uout"/>
<trip type="noVar" depart="210" id="SflowLR.50" from="Lin" to="Rout"/>
<trip type="noVar" depart="210" id="SflowRL.50" from="Rin" to="Lout"/>
<trip type="noVar" depart="214" id="SflowUD.32" from="Uin" to="Dout"/>
<trip type="noVar" depart="214" id="SflowDU.32" from="Din" to="Uout"/>
<trip type="noVar" depart="215" id="SflowLR.51" from="Lin" to="Rout"/>
<trip type="noVar" depart="215" id="SflowRL.51" from="Rin" to="Lout"/>
<trip type="noVar" depart="219" id="SflowLR.52" from="Lin" to="Rout"/>
<trip type="noVar" depart="219" id="SflowRL.52" from="Rin" to="Lout"/>
<trip type="noVar" depart="220" id="SflowUD.33" from="Uin" to="Dout"/>
<trip type="noVar" depart="220" id="SflowDU.33" from="Din" to="Uout"/>
<trip type="noVar" depart="223" id="SflowLR.53" from="Lin" to="Rout"/>
<trip type="noVar" depart="223" id="SflowRL.53" from="Rin" to="Lout"/>
<trip type="noVar" depart="227" id="SflowUD.34" from="Uin" to="Dout"/>
<trip type="noVar" depart="227" id="SflowDU.34" from="Din" to="Uout"/>
<trip type="noVar" depart="227" id="SflowLR.54" from="Lin" to="Rout"/>
<trip type="noVar" depart="227" id="SflowRL.54" from="Rin" to="Lout"/>
<trip type="noVar" depart="232" id="SflowLR.55" from="Lin" to="Rout"/>
<trip type="noVar" depart="232" id="SflowRL.55" from="Rin" to="Lout"/>
<trip type="noVar" depart="234" id="SflowUD.35" from="Uin" to="Dout"/>
<trip type="noVar" depart="234" id="SflowDU.35" from="Din" to="Uout"/>
<trip type="noVar" depart="236" id="SflowLR.56" from="Lin" to="Rout"/>
<trip type="noVar" depart="236" id="SflowRL.56" from="Rin" to="Lout"/>
<trip type="noVar" depart="240" id="SflowLR.57" from="Lin" to="Rout"/>
<trip type="noVar" depart="240" id="SflowRL.57" from="Rin" to="Lout"/>
<trip type="noVar" depart="240" id="SflowUD.36" from="Uin" to="Dout"/>
<trip type="noVar" depart="240" id="SflowDU.36" from="Din" to="Uout"/>
<trip type="noVar" depart="244" id="SflowLR.58" from="Lin" to="Rout"/>
<trip type="noVar" depart="244" id="SflowRL.58" from="Rin" to="Lout"/>
<trip type="noVar" depart="247" id="SflowUD.37" from="Uin" to="Dout"/>
<trip type="noVar" depart="247" id="SflowDU.37" from="Din" to="Uout"/>
<trip type="noVar" depart="248" id="SflowLR.59" from="Lin" to="Rout"/>
<trip type="noVar" depart="248" id="SflowRL.59" from="Rin" to="Lout"/>
<trip type="noVar" depart="253" id="SflowLR.60" from="Lin" to="Rout"/>
<trip type="noVar" depart="253" id="SflowRL.60" from="Rin" to="Lout"/>
<trip type="noVar" depart="254" id="SflowUD.38" from="Uin" to="Dout"/>
<trip type="noVar" depart="254" id="SflowDU.38" from="Din" to="Uout"/>
<trip type="noVar" depart="257" id="SflowLR.61" from="Lin" to="Rout"/>
<trip type="noVar" depart="257" id="SflowRL.61" from="Rin" to="Lout"/>
<trip type="noVar" depart="260" id="SflowUD.39" from="Uin" to="Dout"/>
<trip type="noVar" depart="260" id="SflowDU.39" from="Din" to="Uout"/>
<trip type="noVar" depart="261" id="SflowLR.62" from="Lin" to="Rout"/>
<trip type="noVar" depart="261" id="SflowRL.62" from="Rin" to="Lout"/>
<trip type="noVar" depart="265" id="SflowLR.63" from="Lin" to="Rout"/>
<trip type="noVar" depart="265" id="SflowRL.63" from="Rin" to="Lout"/>
<trip type="noVar" depart="267" id="SflowUD.40" from="Uin" to="Dout"/>
<trip type="noVar" depart="267" id="SflowDU.40" from="Din" to="Uout"/>
<trip type="noVar" depart="270" id="SflowLR.64" from="Lin" to="Rout"/>
<trip type="noVar" depart="270" id="SflowRL.64" from="Rin" to="Lout"/>
<trip type="noVar" depart="274" id="SflowUD.41" from="Uin" to="Dout"/>
<trip type="noVar" depart="274" id="SflowDU.41" from="Din" to="Uout"/>
<trip type="noVar" depart="274" id="SflowLR.65" from="Lin" to="Rout"/>
<trip type="noVar" depart="274" id="SflowRL.65" from="Rin" to="Lout"/>
<trip type="noVar" depart="278" id="SflowLR.66" from="Lin" to="Rout"/>
<trip type="noVar" depart="278" id="SflowRL.66" from="Rin" to="Lout"/>
<trip type="noVar" depart="280" id="SflowUD.42" from="Uin" to="Dout"/>
<trip type="noVar" depart="280" id="SflowDU.42" from="Din" to="Uout"/>
<trip type="noVar" depart="282" id="SflowLR.67" from="Lin" to="Rout"/>
<trip type="noVar" depart="282" id="SflowRL.67" from="Rin" to="Lout"/>
<trip type="noVar" depart="286" id="SflowLR.68" from="Lin" to="Rout"/>
<trip type="noVar" depart="286" id="SflowRL.68" from="Rin" to="Lout"/>
<trip type="noVar" depart="287" id="SflowUD.43" from="Uin" to="Dout"/>
<trip type="noVar" depart="287" id="SflowDU.43" from="Din" to="Uout"/>
<trip type="noVar" depart="291" id="SflowLR.69" from="Lin" to="Rout"/>
<trip type="noVar" depart="291" id="SflowRL.69" from="Rin" to="Lout"/>
<trip type="noVar" depart="294" id="SflowUD.44" from="Uin" to="Dout"/>
<trip type="noVar" depart="294" id="SflowDU.44" from="Din" to="Uout"/>
<trip type="noVar" depart="295" id="SflowLR.70" from="Lin" to="Rout"/>
<trip type="noVar" depart="295" id="SflowRL.70" from="Rin" to="Lout"/>
<trip type="noVar" depart="299" id="SflowLR.71" from="Lin" to="Rout"/>
<trip type="noVar" depart="299" id="SflowRL.71" from="Rin" to="Lout"/>
<trip type="noVar" depart="301" id="SflowUD.45" from="Uin" to="Dout"/>
<trip type="noVar" depart="301" id="SflowDU.45" from="Din" to="Uout"/>
<trip type="noVar" depart="303" id="SflowLR.72" from="Lin" to="Rout"/>
<trip type="noVar" depart="303" id="SflowRL.72" from="Rin" to="Lout"/>
<trip type="noVar" depart="307" id="SflowUD.46" from="Uin" to="Dout"/>
<trip type="noVar" depart="307" id="SflowDU.46" from="Din" to="Uout"/>
<trip type="noVar" depart="308" id="SflowLR.73" from="Lin" to="Rout"/>
<trip type="noVar" depart="308" id="SflowRL.73" from="Rin" to="Lout"/>
<trip type="noVar" depart="312" id="SflowLR.74" from="Lin" to="Rout"/>
<trip type="noVar" depart="312" id="SflowRL.74" from="Rin" to="Lout"/>
<trip type="noVar" depart="314" id="SflowUD.47" from="Uin" to="Dout"/>
<trip type="noVar" depart="314" id="SflowDU.47" from="Din" to="Uout"/>
<trip type="noVar" depart="316" id="SflowLR.75" from="Lin" to="Rout"/>
<trip type="noVar" depart="316" id="SflowRL.75" from="Rin" to="Lout"/>
<trip type="noVar" depart="320" id="SflowLR.76" from="Lin" to="Rout"/>
<trip type="noVar" depart="320" id="SflowRL.76" from="Rin" to="Lout"/>
<trip type="noVar" depart="321" id="SflowUD.48" from="Uin" to="Dout"/>
<trip type="noVar" depart="321" id="SflowDU.48" from="Din" to="Uout"/>
<trip type="noVar" depart="324" id="SflowLR.77" from="Lin" to="Rout"/>
<trip type="noVar" depart="324" id="SflowRL.77" from="Rin" to="Lout"/>
<trip type="noVar" depart="327" id="SflowUD.49" from="Uin" to="Dout"/>
<trip type="noVar" depart="327" id="SflowDU.49" from="Din" to="Uout"/>
<trip type="noVar" depart="329" id="SflowLR.78" from="Lin" to="Rout"/>
<trip type="noVar" depart="329" id="SflowRL.78" from="Rin" to="Lout"/>
<trip type="noVar" depart="333" id="SflowLR.79" from="Lin" to="Rout"/>
<trip type="noVar" depart="333" id="SflowRL.79" from="Rin" to="Lout"/>
<trip type="noVar" depart="334" id="SflowUD.50" from="Uin" to="Dout"/>
<trip type="noVar" depart="334" id="SflowDU.50" from="Din" to="Uout"/>
<trip type="noVar" depart="337" id="SflowLR.80" from="Lin" to="Rout"/>
<trip type="noVar" depart="337" id="SflowRL.80" from="Rin" to="Lout"/>
<trip type="noVar" depart="341" id="SflowUD.51" from="Uin" to="Dout"/>
<trip type="noVar" depart="341" id="SflowDU.51" from="Din" to="Uout"/>
<trip type="noVar" depart="341" id="SflowLR.81" from="Lin" to="Rout"/>
<trip type="noVar" depart="341" id="SflowRL.81" from="Rin" to="Lout"/>
<trip type="noVar" depart="345" id="SflowLR.82" from="Lin" to="Rout"/>
<trip type="noVar" depart="345" id="SflowRL.82" from="Rin" to="Lout"/>
<trip type="noVar" depart="347" id="SflowUD.52" from="Uin" to="Dout"/>
<trip type="noVar" depart="347" id="SflowDU.52" from="Din" to="Uout"/>
<trip type="noVar" depart="350" id="SflowLR.83" from="Lin" to="Rout"/>
<trip type="noVar" depart="350" id="SflowRL.83" from="Rin" to="Lout"/>
<trip type="noVar" depart="354" id="SflowLR.84" from="Lin" to="Rout"/>
<trip type="noVar" depart="354" id="SflowRL.84" from="Rin" to="Lout"/>
<trip type="noVar" depart="354" id="SflowUD.53" from="Uin" to="Dout"/>
<trip type="noVar" depart="354" id="SflowDU.53" from="Din" to="Uout"/>
<trip type="noVar" depart="358" id="SflowLR.85" from="Lin" to="Rout"/>
<trip type="noVar" depart="358" id="SflowRL.85" from="Rin" to="Lout"/>
<trip type="noVar" depart="361" id="SflowUD.54" from="Uin" to="Dout"/>
<trip type="noVar" depart="361" id="SflowDU.54" from="Din" to="Uout"/>
<trip type="noVar" depart="362" id="SflowLR.86" from="Lin" to="Rout"/>
<trip type="noVar" depart="362" id="SflowRL.86" from="Rin" to="Lout"/>
<trip type="noVar" depart="367" id="SflowLR.87" from="Lin" to="Rout"/>
<trip type="noVar" depart="367" id="SflowRL.87" from="Rin" to="Lout"/>
<trip type="noVar" depart="367" id="SflowUD.55" from="Uin" to="Dout"/>
<trip type="noVar" depart="367" id="SflowDU.55" from="Din" to="Uout"/>
<trip type="noVar" depart="371" id="SflowLR.88" from="Lin" to="Rout"/>
<trip type="noVar" depart="371" id="SflowRL.88" from="Rin" to="Lout"/>
<trip type="noVar" depart="374" id="SflowUD.56" from="Uin" to="Dout"/>
<trip type="noVar" depart="374" id="SflowDU.56" from="Din" to="Uout"/>
<trip type="noVar" depart="375" id="SflowLR.89" from="Lin" to="Rout"/>
<trip type="noVar" depart="375" id="SflowRL.89" from="Rin" to="Lout"/>
<trip type="noVar" depart="379" id="SflowLR.90" from="Lin" to="Rout"/>
<trip type="noVar" depart="379" id="SflowRL.90" from="Rin" to="Lout"/>
<trip type="noVar" depart="381" id="SflowUD.57" from="Uin" to="Dout"/>
<trip type="noVar" depart="381" id="SflowDU.57" from="Din" to="Uout"/>
<trip type="noVar" depart="383" id="SflowLR.91" from="Lin" to="Rout"/>
<trip type="noVar" depart="383" id="SflowRL.91" from="Rin" to="Lout"/>
<trip type="noVar" depart="387" id="SflowUD.58" from="Uin" to="Dout"/>
<trip type="noVar" depart="387" id="SflowDU.58" from="Din" to="Uout"/>
<trip type="noVar" depart="388" id="SflowLR.92" from="Lin" to="Rout"/>
<trip type="noVar" depart="388" id="SflowRL.92" from="Rin" to="Lout"/>
<trip type="noVar" depart="392" id="SflowLR.93" from="Lin" to="Rout"/>
<trip type="noVar" depart="392" id="SflowRL.93" from="Rin" to="Lout"/>
<trip type="noVar" depart="394" id="SflowUD.59" from="Uin" to="Dout"/>
<trip type="noVar" depart="394" id="SflowDU.59" from="Din" to="Uout"/>
<trip type="noVar" depart="396" id="SflowLR.94" from="Lin" to="Rout"/>
<trip type="noVar" depart="396" id="SflowRL.94" from="Rin" to="Lout"/>
<trip type="noVar" depart="400" id="SflowLR.95" from="Lin" to="Rout"/>
<trip type="noVar" depart="400" id="SflowRL.95" from="Rin" to="Lout"/>
<trip type="noVar" depart="401" id="SflowUD.60" from="Uin" to="Dout"/>
<trip type="noVar" depart="401" id="SflowDU.60" from="Din" to="Uout"/>
<trip type="noVar" depart="405" id="SflowLR.96" from="Lin" to="Rout"/>
<trip type="noVar" depart="405" id="SflowRL.96" from="Rin" to="Lout"/>
<trip type="noVar" depart="408" id="SflowUD.61" from="Uin" to="Dout"/>
<trip type="noVar" depart="408" id="SflowDU.61" from="Din" to="Uout"/>
<trip type="noVar" depart="409" id="SflowLR.97" from="Lin" to="Rout"/>
<trip type="noVar" depart="409" id="SflowRL.97" from="Rin" to="Lout"/>
<trip type="noVar" depart="413" id="SflowLR.98" from="Lin" to="Rout"/>
<trip type="noVar" depart="413" id="SflowRL.98" from="Rin" to="Lout"/>
<trip type="noVar" depart="414" id="SflowUD.62" from="Uin" to="Dout"/>
<trip type="noVar" depart="414" id="SflowDU.62" from="Din" to="Uout"/>
<trip type="noVar" depart="417" id="SflowLR.99" from="Lin" to="Rout"/>
<trip type="noVar" depart="417" id="SflowRL.99" from="Rin" to="Lout"/>
<trip type="noVar" depart="421" id="SflowUD.63" from="Uin" to="Dout"/>
<trip type="noVar" depart="421" id="SflowDU.63" from="Din" to="Uout"/>
<trip type="noVar" depart="421" id="SflowLR.100" from="Lin" to="Rout"/>
<trip type="noVar" depart="421" id="SflowRL.100" from="Rin" to="Lout"/>
<trip type="noVar" depart="426" id="SflowLR.101" from="Lin" to="Rout"/>
<trip type="noVar" depart="426" id="SflowRL.101" from="Rin" to="Lout"/>
<trip type="noVar" depart="428" id="SflowUD.64" from="Uin" to="Dout"/>
<trip type="noVar" depart="428" id="SflowDU.64" from="Din" to="Uout"/>
<trip type="noVar" depart="430" id="SflowLR.102" from="Lin" to="Rout"/>
<trip type="noVar" depart="430" id="SflowRL.102" from="Rin" to="Lout"/>
<trip type="noVar" depart="434" id="SflowLR.103" from="Lin" to="Rout"/>
<trip type="noVar" depart="434" id="SflowRL.103" from="Rin" to="Lout"/>
<trip type="noVar" depart="434" id="SflowUD.65" from="Uin" to="Dout"/>
<trip type="noVar" depart="434" id="SflowDU.65" from="Din" to="Uout"/>
<trip type="noVar" depart="438" id="SflowLR.104" from="Lin" to="Rout"/>
<trip type="noVar" depart="438" id="SflowRL.104" from="Rin" to="Lout"/>
<trip type="noVar" depart="441" id="SflowUD.66" from="Uin" to="Dout"/>
<trip type="noVar" depart="441" id="SflowDU.66" from="Din" to="Uout"/>
<trip type="noVar" depart="443" id="SflowLR.105" from="Lin" to="Rout"/>
<trip type="noVar" depart="443" id="SflowRL.105" from="Rin" to="Lout"/>
<trip type="noVar" depart="447" id="SflowLR.106" from="Lin" to="Rout"/>
<trip type="noVar" depart="447" id="SflowRL.106" from="Rin" to="Lout"/>
<trip type="noVar" depart="448" id="SflowUD.67" from="Uin" to="Dout"/>
<trip type="noVar" depart="448" id="SflowDU.67" from="Din" to="Uout"/>
<trip type="noVar" depart="451" id="SflowLR.107" from="Lin" to="Rout"/>
<trip type="noVar" depart="451" id="SflowRL.107" from="Rin" to="Lout"/>
<trip type="noVar" depart="454" id="SflowUD.68" from="Uin" to="Dout"/>
<trip type="noVar" depart="454" id="SflowDU.68" from="Din" to="Uout"/>
<trip type="noVar" depart="455" id="SflowLR.108" from="Lin" to="Rout"/>
<trip type="noVar" depart="455" id="SflowRL.108" from="Rin" to="Lout"/>
<trip type="noVar" depart="459" id="SflowLR.109" from="Lin" to="Rout"/>
<trip type="noVar" depart="459" id="SflowRL.109" from="Rin" to="Lout"/>
<trip type="noVar" depart="461" id="SflowUD.69" from="Uin" to="Dout"/>
<trip type="noVar" depart="461" id="SflowDU.69" from="Din" to="Uout"/>
<trip type="noVar" depart="464" id="SflowLR.110" from="Lin" to="Rout"/>
<trip type="noVar" depart="464" id="SflowRL.110" from="Rin" to="Lout"/>
<trip type="noVar" depart="468" id="SflowUD.70" from="Uin" to="Dout"/>
<trip type="noVar" depart="468" id="SflowDU.70" from="Din" to="Uout"/>
<trip type="noVar" depart="468" id="SflowLR.111" from="Lin" to="Rout"/>
<trip type="noVar" depart="468" id="SflowRL.111" from="Rin" to="Lout"/>
<trip type="noVar" depart="472" id="SflowLR.112" from="Lin" to="Rout"/>
<trip type="noVar" depart="472" id="SflowRL.112" from="Rin" to="Lout"/>
<trip type="noVar" depart="474" id="SflowUD.71" from="Uin" to="Dout"/>
<trip type="noVar" depart="474" id="SflowDU.71" from="Din" to="Uout"/>
<trip type="noVar" depart="476" id="SflowLR.113" from="Lin" to="Rout"/>
<trip type="noVar" depart="476" id="SflowRL.113" from="Rin" to="Lout"/>
<trip type="noVar" depart="481" id="SflowLR.114" from="Lin" to="Rout"/>
<trip type="noVar" depart="481" id="SflowRL.114" from="Rin" to="Lout"/>
<trip type="noVar" depart="481" id="SflowUD.72" from="Uin" to="Dout"/>
<trip type="noVar" depart="481" id="SflowDU.72" from="Din" to="Uout"/>
<trip type="noVar" depart="485" id="SflowLR.115" from="Lin" to="Rout"/>
<trip type="noVar" depart="485" id="SflowRL.115" from="Rin" to="Lout"/>
<trip type="noVar" depart="488" id="SflowUD.73" from="Uin" to="Dout"/>
<trip type="noVar" depart="488" id="SflowDU.73" from="Din" to="Uout"/>
<trip type="noVar" depart="489" id="SflowLR.116" from="Lin" to="Rout"/>
<trip type="noVar" depart="489" id="SflowRL.116" from="Rin" to="Lout"/>
<trip type="noVar" depart="493" id="SflowLR.117" from="Lin" to="Rout"/>
<trip type="noVar" depart="493" id="SflowRL.117" from="Rin" to="Lout"/>
<trip type="noVar" depart="494" id="SflowUD.74" from="Uin" to="Dout"/>
<trip type="noVar" depart="494" id="SflowDU.74" from="Din" to="Uout"/>
<trip type="noVar" depart="497" id="SflowLR.118" from="Lin" to="Rout"/>
<trip type="noVar" depart="497" id="SflowRL.118" from="Rin" to="Lout"/>
<trip type="noVar" depart="501" id="SflowUD.75" from="Uin" to="Dout"/>
<trip type="noVar" depart="501" id="SflowDU.75" from="Din" to="Uout"/>
<trip type="noVar" depart="502" id="SflowLR.119" from="Lin" to="Rout"/>
<trip type="noVar" depart="502" id="SflowRL.119" from="Rin" to="Lout"/>
<trip type="noVar" depart="506" id="SflowLR.120" from="Lin" to="Rout"/>
<trip type="noVar" depart="506" id="SflowRL.120" from="Rin" to="Lout"/>
<trip type="noVar" depart="508" id="SflowUD.76" from="Uin" to="Dout"/>
<trip type="noVar" depart="508" id="SflowDU.76" from="Din" to="Uout"/>
<trip type="noVar" depart="510" id="SflowLR.121" from="Lin" to="Rout"/>
<trip type="noVar" depart="510" id="SflowRL.121" from="Rin" to="Lout"/>
<trip type="noVar" depart="514" id="SflowLR.122" from="Lin" to="Rout"/>
<trip type="noVar" depart="514" id="SflowRL.122" from="Rin" to="Lout"/>
<trip type="noVar" depart="515" id="SflowUD.77" from="Uin" to="Dout"/>
<trip type="noVar" depart="515" id="SflowDU.77" from="Din" to="Uout"/>
<trip type="noVar" depart="518" id="SflowLR.123" from="Lin" to="Rout"/>
<trip type="noVar" depart="518" id="SflowRL.123" from="Rin" to="Lout"/>
<trip type="noVar" depart="521" id="SflowUD.78" from="Uin" to="Dout"/>
<trip type="noVar" depart="521" id="SflowDU.78" from="Din" to="Uout"/>
<trip type="noVar" depart="523" id="SflowLR.124" from="Lin" to="Rout"/>
<trip type="noVar" depart="523" id="SflowRL.124" from="Rin" to="Lout"/>
<trip type="noVar" depart="527" id="SflowLR.125" from="Lin" to="Rout"/>
<trip type="noVar" depart="527" id="SflowRL.125" from="Rin" to="Lout"/>
<trip type="noVar" depart="528" id="SflowUD.79" from="Uin" to="Dout"/>
<trip type="noVar" depart="528" id="SflowDU.79" from="Din" to="Uout"/>
<trip type="noVar" depart="531" id="SflowLR.126" from="Lin" to="Rout"/>
<trip type="noVar" depart="531" id="SflowRL.126" from="Rin" to="Lout"/>
<trip type="noVar" depart="535" id="SflowUD.80" from="Uin" to="Dout"/>
<trip type="noVar" depart="535" id="SflowDU.80" from="Din" to="Uout"/>
<trip type="noVar" depart="535" id="SflowLR.127" from="Lin" to="Rout"/>
<trip type="noVar" depart="535" id="SflowRL.127" from="Rin" to="Lout"/>
<trip type="noVar" depart="540" id="SflowLR.128" from="Lin" to="Rout"/>
<trip type="noVar" depart="540" id="SflowRL.128" from="Rin" to="Lout"/>