<?xml version="1.0" encoding="UTF-8"?>
<routes xmlns:xsi="http://www.w3.org/2001/XMLSchema-instance" xsi:noNamespaceSchemaLocation="http://sumo.dlr.de/xsd/routes_file.xsd">

<vType id="noVar" speedFactor="1.0" speedDev="0.0"/>
<trip type="noVar" depart="0" id="SflowLR.0" from="Lin" to="Rout"/>
<trip type="noVar" depart="0" id="SflowLU.0" from="Lin" to="Uout"/>
<trip type="noVar" depart="0" id="SflowLD.0" from="Lin" to="Dout"/>
<trip type="noVar" depart="0" id="SflowRL.0" from="Rin" to="Lout"/>
<trip type="noVar" depart="0" id="SflowRU.0" from="Rin" to="Uout"/>
<trip type="noVar" depart="0" id="SflowRD.0" from="Rin" to="Dout"/>
<trip type="noVar" depart="0" id="SflowUD.0" from="Uin" to="Dout"/>
<trip type="noVar" depart="0" id="SflowUL.0" from="Uin" to="Lout"/>
<trip type="noVar" depart="0" id="SflowUR.0" from="Uin" to="Rout"/>
<trip type="noVar" depart="0" id="SflowDU.0" from="Din" to="Uout"/>
<trip type="noVar" depart="0" id="SflowDL.0" from="Din" to="Lout"/>
<trip type="noVar" depart="0" id="SflowDR.0" from="Din" to="Rout"/>
<trip type="noVar" depart="10" id="SflowLR.1" from="Lin" to="Rout"/>
<trip type="noVar" depart="10" id="SflowRL.1" from="Rin" to="Lout"/>
<trip type="noVar" depart="14" id="SflowUD.1" from="Uin" to="Dout"/>
<trip type="noVar" depart="14" id="SflowDU.1" from="Din" to="Uout"/>
<trip type="noVar" depart="21" id="SflowLR.2" from="Lin" to="Rout"/>
<trip type="noVar" depart="21" id="SflowRL.2" from="Rin" to="Lout"/>
<trip type="noVar" depart="21" id="SflowLU.1" from="Lin" to="Uout"/>
<trip type="noVar" depart="21" id="SflowLD.1" from="Lin" to="Dout"/>
<trip type="noVar" depart="21" id="SflowRU.1" from="Rin" to="Uout"/>
<trip type="noVar" depart="21" id="SflowRD.1" from="Rin" to="Dout"/>
<trip type="noVar" depart="28" id="SflowUD.2" from="Uin" to="Dout"/>
<trip type="noVar" depart="28" id="SflowDU.2" from="Din" to="Uout"/>
<trip type="noVar" depart="31" id="SflowLR.3" from="Lin" to="Rout"/>
<trip type="noVar" depart="31" id="SflowRL.3" from="Rin" to="Lout"/>
<trip type="noVar" depart="42" id="SflowLR.4" from="Lin" to="Rout"/>
<trip type="noVar" depart="42" id="SflowRL.4" from="Rin" to="Lout"/>
<trip type="noVar" depart="42" id="SflowUD.3" from="Uin" to="Dout"/>
<trip type="noVar" depart="42" id="SflowDU.3" from="Din" to="Uout"/>
<trip type="noVar" depart="42" id="SflowLU.2" from="Lin" to="Uout"/>
<trip type="noVar" depart="42" id="SflowLD.2" from="Lin" to="Dout"/>
<trip type="noVar" depart="42" id="SflowRU.2" from="Rin" to="Uout"/>
<trip type="noVar" depart="42" id="SflowRD.2" from="Rin" to="Dout"/>
<trip type="noVar" depart="42" id="SflowUL.1" from="Uin" to="Lout"/>
<trip type="noVar" depart="42" id="SflowUR.1" from="Uin" to="Rout"/>
<trip type="noVar" depart="42" id="SflowDL.1" from="Din" to="Lout"/>
<trip type="noVar" depart="42" id="SflowDR.1" from="Din" to="Rout"/>
<trip type="noVar" depart="52" id="SflowLR.5" from="Lin" to="Rout"/>
<trip type="noVar" depart="52" id="SflowRL.5" from="Rin" to="Lout"/>
<trip type="noVar" depart="56" id="SflowUD.4" from="Uin" to="Dout"/>
<trip type="noVar" depart="56" id="SflowDU.4" from="Din" to="Uout"/>
<trip type="noVar" depart="63" id="SflowLR.6" from="Lin" to="Rout"/>
<trip type="noVar" depart="63" id="SflowRL.6" from="Rin" to="Lout"/>
<trip type="noVar" depart="63" id="SflowLU.3" from="Lin" to="Uout"/>
<trip type="noVar" depart="63" id="SflowLD.3" from="Lin" to="Dout"/>
<trip type="noVar" depart="63" id="SflowRU.3" from="Rin" to="Uout"/>
<trip type="noVar" depart="63" id="SflowRD.3" from="Rin" to="Dout"/>
<trip type="noVar" depart="70" id="SflowUD.5" from="Uin" to="Dout"/>
<trip type="noVar" depart="70" id="SflowDU.5" from="Din" to="Uout"/>
<trip type="noVar" depart="73" id="SflowLR.7" from="Lin" to="Rout"/>
<trip type="noVar" depart="73" id="SflowRL.7" from="Rin" to="Lout"/>
<trip type="noVar" depart="84" id="SflowLR.8" from="Lin" to="Rout"/>
<trip type="noVar" depart="84" id="SflowRL.8" from="Rin" to="Lout"/>
<trip type="noVar" depart="84" id="SflowUD.6" from="Uin" to="Dout"/>
<trip type="noVar" depart="84" id="SflowDU.6" from="Din" to="Uout"/>
<trip type="noVar" depart="84" id="SflowLU.4" from="Lin" to="Uout"/>
<trip type="noVar" depart="84" id="SflowLD.4" from="Lin" to="Dout"/>
<trip type="noVar" depart="84" id="SflowRU.4" from="Rin" to="Uout"/>
<trip type="noVar" depart="84" id="SflowRD.4" from="Rin" to="Dout"/>
<trip type="noVar" depart="85" id="SflowUL.2" from="Uin" to="Lout"/>
<trip type="noVar" depart="85" id="SflowUR.2" from="Uin" to="Rout"/>
<trip type="noVar" depart="85" id="SflowDL.2" from="Din" to="Lout"/>
<trip type="noVar" depart="85" id="SflowDR.2" from="Din" to="Rout"/>
<trip type="noVar" depart="94" id="SflowLR.9" from="Lin" to="Rout"/>
<trip type="noVar" depart="94" id="SflowRL.9" from="Rin" to="Lout"/>
<trip type="noVar" depart="98" id="SflowUD.7" from="Uin" to="Dout"/>
<trip type="noVar" depart="98" id="SflowDU.7" from="Din" to="Uout"/>
<trip type="noVar" depart="105" id="SflowLR.10" from="Lin" to="Rout"/>
<trip type="noVar" depart="105" id="SflowRL.10" from="Rin" to="Lout"/>
<trip type="noVar" depart="106" id="SflowLU.5" from="Lin" to="Uout"/>
<trip type="noVar" depart="106" id="SflowLD.5" from="Lin" to="Dout"/>
<trip type="noVar" depart="106" id="SflowRU.5" from="Rin" to="Uout"/>
<trip type="noVar" depart="106" id="SflowRD.5" from="Rin" to="Dout"/>
<trip type="noVar" depart="112" id="SflowUD.8" from="Uin" to="Dout"/>
<trip type="noVar" depart="112" id="SflowDU.8" from="Din" to="Uout"/>
<trip type="noVar" depart="116" id="SflowLR.11" from="Lin" to="Rout"/>
<trip type="noVar" depart="116" id="SflowRL.11" from="Rin" to="Lout"/>
<trip type="noVar" depart="126" id="SflowLR.12" from="Lin" to="Rout"/>
<trip type="noVar" depart="126" id="SflowRL.12" from="Rin" to="Lout"/>
<trip type="noVar" depart="126" id="SflowUD.9" from="Uin" to="Dout"/>
<trip type="noVar" depart="126" id="SflowDU.9" from="Din" to="Uout"/>
<trip type="noVar" depart="127" id="SflowLU.6" from="Lin" to="Uout"/>
<trip type="noVar" depart="127" id="SflowLD.6" from="Lin" to="Dout"/>
<trip type="noVar" depart="127" id="SflowRU.6" from="Rin" to="Uout"/>
<trip type="noVar" depart="127" id="SflowRD.6" from="Rin" to="Dout"/>
<trip type="noVar" depart="128" id="SflowUL.3" from="Uin" to="Lout"/>
<trip type="noVar" depart="128" id="SflowUR.3" from="Uin" to="Rout"/>
<trip type="noVar" depart="128" id="SflowDL.3" from="Din" to="Lout"/>
<trip type="noVar" depart="128" id="SflowDR.3" from="Din" to="Rout"/>
<trip type="noVar" depart="137" id="SflowLR.13" from="Lin" to="Rout"/>
<trip type="noVar" depart="137" id="SflowRL.13" from="Rin" to="Lout"/>
<trip type="noVar" depart="140" id="SflowUD.10" from="Uin" to="Dout"/>
<trip type="noVar" depart="140" id="SflowDU.10" from="Din" to="Uout"/>
<trip type="noVar" depart="147" id="SflowLR.14" from="Lin" to="Rout"/>
<trip type="noVar" depart="147" id="SflowRL.14" from="Rin" to="Lout"/>
<trip type="noVar" depart="148" id="SflowLU.7" from="Lin" to="Uout"/>
<trip type="noVar" depart="148" id="SflowLD.7" from="Lin" to="Dout"/>
<trip type="noVar" depart="148" id="SflowRU.7" from="Rin" to="Uout"/>
<trip type="noVar" depart="148" id="SflowRD.7" from="Rin" to="Dout"/>
<trip type="noVar" depart="155" id="SflowUD.11" from="Uin" to="Dout"/>
<trip type="noVar" depart="155" id="SflowDU.11" from="Din" to="Uout"/>
<trip type="noVar" depart="158" id="SflowLR.15" from="Lin" to="Rout"/>
<trip type="noVar" depart="158" id="SflowRL.15" from="Rin" to="Lout"/>
<trip type="noVar" depart="168" id="SflowLR.16" from="Lin" to="Rout"/>
<trip type="noVar" depart="168" id="SflowRL.16" from="Rin" to="Lout"/>
<trip type="noVar" depart="169" id="SflowUD.12" from="Uin" to="Dout"/>
<trip type="noVar" depart="169" id="SflowDU.12" from="Din" to="Uout"/>
<trip type="noVar" depart="169" id="SflowLU.8" from="Lin" to="Uout"/>
<trip type="noVar" depart="169" id="SflowLD.8" from="Lin" to="Dout"/>
<trip type="noVar" depart="169" id="SflowRU.8" from="Rin" to="Uout"/>
<trip type="noVar" depart="169" id="SflowRD.8" from="Rin" to="Dout"/>
<trip type="noVar" depart="171" id="SflowUL.4" from="Uin" to="Lout"/>
<trip type="noVar" depart="171" id="SflowUR.4" from="Uin" to="Rout"/>
<trip type="noVar" depart="171" id="SflowDL.4" from="Din" to="Lout"/>
<trip type="noVar" depart="171" id="SflowDR.4" from="Din" to="Rout"/>
<trip type="noVar" depart="179" id="SflowLR.17" from="Lin" to="Rout"/>
<trip type="noVar" depart="179" id="SflowRL.17" from="Rin" to="Lout"/>
<trip type="noVar" depart="183" id="SflowUD.13" from="Uin" to="Dout"/>
<trip type="noVar" depart="183" id="SflowDU.13" from="Din" to="Uout"/>
<trip type="noVar" depart="189" id="SflowLR.18" from="Lin" to="Rout"/>
<trip type="noVar" depart="189" id="SflowRL.18" from="Rin" to="Lout"/>
<trip type="noVar" depart="190" id="SflowLU.9" from="Lin" to="Uout"/>
<trip type="noVar" depart="190" id="SflowLD.9" from="Lin" to="Dout"/>
<trip type="noVar" depart="190" id="SflowRU.9" from="Rin" to="Uout"/>
<trip type="noVar" depart="190" id="SflowRD.9" from="Rin" to="Dout"/>
<trip type="noVar" depart="197" id="SflowUD.14" from="Uin" to="Dout"/>
<trip type="noVar" depart="197" id="SflowDU.14" from="Din" to="Uout"/>
<trip type="noVar" depart="200" id="SflowLR.19" from="Lin" to="Rout"/>
<trip type="noVar" depart="200" id="SflowRL.19" from="Rin" to="Lout"/>
<trip type="noVar" depart="211" id="SflowLR.20" from="Lin" to="Rout"/>
<trip type="noVar" depart="211" id="SflowRL.20" from="Rin" to="Lout"/>
<trip type="noVar" depart="211" id="SflowUD.15" from="Uin" to="Dout"/>
<trip type="noVar" depart="211" id="SflowDU.15" from="Din" to="Uout"/>
<trip type="noVar" depart="212" id="SflowLU.10" from="Lin" to="Uout"/>
<trip type="noVar" depart="212" id="SflowLD.10" from="Lin" to="Dout"/>
<trip type="noVar" depart="212" id="SflowRU.10" from="Rin" to="Uout"/>
<trip type="noVar" depart="212" id="SflowRD.10" from="Rin" to="Dout"/>
<trip type="noVar" depart="214" id="SflowUL.5" from="Uin" to="Lout"/>
<trip type="noVar" depart="214" id="SflowUR.5" from="Uin" to="Rout"/>
<trip type="noVar" depart="214" id="SflowDL.5" from="Din" to="Lout"/>
<trip type="noVar" depart="214" id="SflowDR.5" from="Din" to="Rout"/>
<trip type="noVar" depart="221" id="SflowLR.21" from="Lin" to="Rout"/>
<trip type="noVar" depart="221" id="SflowRL.21" from="Rin" to="Lout"/>
<trip type="noVar" depart="225" id="SflowUD.16" from="Uin" to="Dout"/>
<trip type="noVar" depart="225" id="SflowDU.16" from="Din" to="Uout"/>
<trip type="noVar" depart="232" id="SflowLR.22" from="Lin" to="Rout"/>
<trip type="noVar" depart="232" id="SflowRL.22" from="Rin" to="Lout"/>
<trip type="noVar" depart="233" id="SflowLU.11" from="Lin" to="Uout"/>
<trip type="noVar" depart="233" id="SflowLD.11" from="Lin" to="Dout"/>
<trip type="noVar" depart="233" id="SflowRU.11" from="Rin" to="Uout"/>
<trip type="noVar" depart="233" id="SflowRD.11" from="Rin" to="Dout"/>
<trip type="noVar" depart="239" id="SflowUD.17" from="Uin" to="Dout"/>
<trip type="noVar" depart="239" id="SflowDU.17" from="Din" to="Uout"/>
<trip type="noVar" depart="242" id="SflowLR.23" from="Lin" to="Rout"/>
<trip type="noVar" depart="242" id="SflowRL.23" from="Rin" to="Lout"/>
<trip type="noVar" depart="253" id="SflowLR.24" from="Lin" to="Rout"/>
<trip type="noVar" depart="253" id="SflowRL.24" from="Rin" to="Lout"/>
<trip type="noVar" depart="253" id="SflowUD.18" from="Uin" to="Dout"/>
<trip type="noVar" depart="253" id="SflowDU.18" from="Din" to="Uout"/>
<trip type="noVar" depart="254" id="SflowLU.12" from="Lin" to="Uout"/>
<trip type="noVar" depart="254" id="SflowLD.12" from="Lin" to="Dout"/>
<trip type="noVar" depart="254" id="SflowRU.12" from="Rin" to="Uout"/>
<trip type="noVar" depart="254" id="SflowRD.12" from="Rin" to="Dout"/>
<trip type="noVar" depart="257" id="SflowUL.6" from="Uin" to="Lout"/>
<trip type="noVar" depart="257" id="SflowUR.6" from="Uin" to="Rout"/>
<trip type="noVar" depart="257" id="SflowDL.6" from="Din" to="Lout"/>
<trip type="noVar" depart="257" id="SflowDR.6" from="Din" to="Rout"/>
<trip type="noVar" depart="263" id="SflowLR.25" from="Lin" to="Rout"/>
<trip type="noVar" depart="263" id="SflowRL.25" from="Rin" to="Lout"/>
<trip type="noVar" depart="267" id="SflowUD.19" from="Uin" to="Dout"/>
<trip type="noVar" depart="267" id="SflowDU.19" from="Din" to="Uout"/>
<trip type="noVar" depart="274" id="SflowLR.26" from="Lin" to="Rout"/>
<trip type="noVar" depart="274" id="SflowRL.26" from="Rin" to="Lout"/>
<trip type="noVar" depart="275" id="SflowLU.13" from="Lin" to="Uout"/>
<trip type="noVar" depart="275" id="SflowLD.13" from="Lin" to="Dout"/>
<trip type="noVar" depart="275" id="SflowRU.13" from="Rin" to="Uout"/>
<trip type="noVar" depart="275" id="SflowRD.13" from="Rin" to="Dout"/>
<trip type="noVar" depart="281" id="SflowUD.20" from="Uin" to="Dout"/>
<trip type="noVar" depart="281" id="SflowDU.20" from="Din" to="Uout"/>
<trip type="noVar" depart="284" id="SflowLR.27" from="Lin" to="Rout"/>
<trip type="noVar" depart="284" id="SflowRL.27" from="Rin" to="Lout"/>
<trip type="noVar" depart="295" id="SflowLR.28" from="Lin" to="Rout"/>
<trip type="noVar" depart="295" id="SflowRL.28" from="Rin" to="Lout"/>
<trip type="noVar" depart="295" id="SflowUD.21" from="Uin" to="Dout"/>
<trip type="noVar" depart="295" id="SflowDU.21" from="Din" to="Uout"/>
<trip type="noVar" depart="296" id="SflowLU.14" from="Lin" to="Uout"/>
<trip type="noVar" depart="296" id="SflowLD.14" from="Lin" to="Dout"/>
<trip type="noVar" depart="296" id="SflowRU.14" from="Rin" to="Uout"/>
<trip type="noVar" depart="296" id="SflowRD.14" from="Rin" to="Dout"/>
<trip type="noVar" depart="300" id="SflowUL.7" from="Uin" to="Lout"/>
<trip type="noVar" depart="300" id="SflowUR.7" from="Uin" to="Rout"/>
<trip type="noVar" depart="300" id="SflowDL.7" from="Din" to="Lout"/>
<trip type="noVar" depart="300" id="SflowDR.7" from="Din" to="Rout"/>
<trip type="noVar" depart="306" id="SflowLR.29" from="Lin" to="Rout"/>
<trip type="noVar" depart="306" id="SflowRL.29" from="Rin" to="Lout"/>
<trip type="noVar" depart="310" id="SflowUD.22" from="Uin" to="Dout"/>
<trip type="noVar" depart="310" id="SflowDU.22" from="Din" to="Uout"/>
<trip type="noVar" depart="316" id="SflowLR.30" from="Lin" to="Rout"/>
<trip type="noVar" depart="316" id="SflowRL.30" from="Rin" to="Lout"/>
<trip type="noVar" depart="318" id="SflowLU.15" from="Lin" to="Uout"/>
<trip type="noVar" depart="318" id="SflowLD.15" from="Lin" to="Dout"/>
<trip type="noVar" depart="318" id="SflowRU.15" from="Rin" to="Uout"/>
<trip type="noVar" depart="318" id="SflowRD.15" from="Rin" to="Dout"/>
<trip type="noVar" depart="324" id="SflowUD.23" from="Uin" to="Dout"/>
<trip type="noVar" depart="324" id="SflowDU.23" from="Din" to="Uout"/>
<trip type="noVar" depart="327" id="SflowLR.31" from="Lin" to="Rout"/>
<trip type="noVar" depart="327" id="SflowRL.31" from="Rin" to="Lout"/>
<trip type="noVar" depart="337" id="SflowLR.32" from="Lin" to="Rout"/>
<trip type="noVar" depart="337" id="SflowRL.32" from="Rin" to="Lout"/>
<trip type="noVar" depart="338" id="SflowUD.24" from="Uin" to="Dout"/>
<trip type="noVar" depart="338" id="SflowDU.24" from="Din" to="Uout"/>
<trip type="noVar" depart="339" id="SflowLU.16" from="Lin" to="Uout"/>
<trip type="noVar" depart="339" id="SflowLD.16" from="Lin" to="Dout"/>
<trip type="noVar" depart="339" id="SflowRU.16" from="Rin" to="Uout"/>
<trip type="noVar" depart="339" id="SflowRD.16" from="Rin" to="Dout"/>
<trip type="noVar" depart="342" id="SflowUL.8" from="Uin" to="Lout"/>
<trip type="noVar" depart="342" id="SflowUR.8" from="Uin" to="Rout"/>
<trip type="noVar" depart="342" id="SflowDL.8" from="Din" to="Lout"/>
<trip type="noVar" depart="342" id="SflowDR.8" from="Din" to="Rout"/>
<trip type="noVar" depart="348" id="SflowLR.33" from="Lin" to="Rout"/>
<trip type="noVar" depart="348" id="SflowRL.33" from="Rin" to="Lout"/>
<trip type="noVar" depart="352" id="SflowUD.25" from="Uin" to="Dout"/>
<trip type="noVar" depart="352" id="SflowDU.25" from="Din" to="Uout"/>
<trip type="noVar" depart="358" id="SflowLR.34" from="Lin" to="Rout"/>
<trip type="noVar" depart="358" id="SflowRL.34" from="Rin" to="Lout"/>
<trip type="noVar" depart="360" id="SflowLU.17" from="Lin" to="Uout"/>
<trip type="noVar" depart="360" id="SflowLD.17" from="Lin" to="Dout"/>
<trip type="noVar" depart="360" id="SflowRU.17" from="Rin" to="Uout"/>
<trip type="noVar" depart="360" id="SflowRD.17" from="Rin" to="Dout"/>
<trip type="noVar" depart="366" id="SflowUD.26" from="Uin" to="Dout"/>
<trip type="noVar" depart="366" id="SflowDU.26" from="Din" to="Uout"/>
<trip type="noVar" depart="369" id="SflowLR.35" from="Lin" to="Rout"/>
<trip type="noVar" depart="369" id="SflowRL.35" from="Rin" to="Lout"/>
<trip type="noVar" depart="379" id="SflowLR.36" from="Lin" to="Rout"/>
<trip type="noVar" depart="379" id="SflowRL.36" from="Rin" to="Lout"/>
<trip type="noVar" depart="380" id="SflowUD.27" from="Uin" to="Dout"/>
<trip type="noVar" depart="380" id="SflowDU.27" from="Din" to="Uout"/>
<trip type="noVar" depart="381" id="SflowLU.18" from="Lin" to="Uout"/>
<trip type="noVar" depart="381" id="SflowLD.18" from="Lin" to="Dout"/>
<trip type="noVar" depart="381" id="SflowRU.18" from="Rin" to="Uout"/>
<trip type="noVar" depart="381" id="SflowRD.18" from="Rin" to="Dout"/>
<trip type="noVar" depart="385" id="SflowUL.9" from="Uin" to="Lout"/>
<trip type="noVar" depart="385" id="SflowUR.9" from="Uin" to="Rout"/>
<trip type="noVar" depart="385" id="SflowDL.9" from="Din" to="Lout"/>
<trip type="noVar" depart="385" id="SflowDR.9" from="Din" to="Rout"/>
<trip type="noVar" depart="390" id="SflowLR.37" from="Lin" to="Rout"/>
<trip type="noVar" depart="390" id="SflowRL.37" from="Rin" to="Lout"/>
<trip type="noVar" depart="394" id="SflowUD.28" from="Uin" to="Dout"/>
<trip type="noVar" depart="394" id="SflowDU.28" from="Din" to="Uout"/>
<trip type="noVar" depart="401" id="SflowLR.38" from="Lin" to="Rout"/>
<trip type="noVar" depart="401" id="SflowRL.38" from="Rin" to="Lout"/>
<trip type="noVar" depart="403" id="SflowLU.19" from="Lin" to="Uout"/>
<trip type="noVar" depart="403" id="SflowLD.19" from="Lin" to="Dout"/>
<trip type="noVar" depart="403" id="SflowRU.19" from="Rin" to="Uout"/>
<trip type="noVar" depart="403" id="SflowRD.19" from="Rin" to="Dout"/>
<trip type="noVar" depart="408" id="SflowUD.29" from="Uin" to="Dout"/>
<trip type="noVar" depart="408" id="SflowDU.29" from="Din" to="Uout"/>
<trip type="noVar" depart="411" id="SflowLR.39" from="Lin" to="Rout"/>
<trip type="noVar" depart="411" id="SflowRL.39" from="Rin" to="Lout"/>
<trip type="noVar" depart="422" id="SflowLR.40" from="Lin" to="Rout"/>
<trip type="noVar" depart="422" id="SflowRL.40" from="Rin" to="Lout"/>
<trip type="noVar" depart="422" id="SflowUD.30" from="Uin" to="Dout"/>
<trip type="noVar" depart="422" id="SflowDU.30" from="Din" to="Uout"/>
<trip type="noVar" depart="424" id="SflowLU.20" from="Lin" to="Uout"/>
<trip type="noVar" depart="424" id="SflowLD.20" from="Lin" to="Dout"/>
<trip type="noVar" depart="424" id="SflowRU.20" from="Rin" to="Uout"/>
<trip type="noVar" depart="424" id="SflowRD.20" from="Rin" to="Dout"/>
<trip type="noVar" depart="428" id="SflowUL.10" from="Uin" to="Lout"/>
<trip type="noVar" depart="428" id="SflowUR.10" from="Uin" to="Rout"/>
<trip type="noVar" depart="428" id="SflowDL.10" from="Din" to="Lout"/>
<trip type="noVar" depart="428" id="SflowDR.10" from="Din" to="Rout"/>
<trip type="noVar" depart="432" id="SflowLR.41" from="Lin" to="Rout"/>
<trip type="noVar" depart="432" id="SflowRL.41" from="Rin" to="Lout"/>
<trip type="noVar" depart="436" id="SflowUD.31" from="Uin" to="Dout"/>
<trip type="noVar" depart="436" id="SflowDU.31" from="Din" to="Uout"/>
<trip type="noVar" depart="443" id="SflowLR.42" from="Lin" to="Rout"/>
<trip type="noVar" depart="443" id="SflowRL.42" from="Rin" to="Lout"/>
<trip type="noVar" depart="445" id="SflowLU.21" from="Lin" to="Uout"/>
<trip type="noVar" depart="445" id="SflowLD.21" from="Lin" to="Dout"/>
<trip type="noVar" depart="445" id="SflowRU.21" from="Rin" to="Uout"/>
<trip type="noVar" depart="445" id="SflowRD.21" from="Rin" to="Dout"/>
<trip type="noVar" depart="451" id="SflowUD.32" from="Uin" to="Dout"/>
<trip type="noVar" depart="451" id="SflowDU.32" from="Din" to="Uout"/>
<trip type="noVar" depart="453" id="SflowLR.43" from="Lin" to="Rout"/>
<trip type="noVar" depart="453" id="SflowRL.43" from="Rin" to="Lout"/>
<trip type="noVar" depart="464" id="SflowLR.44" from="Lin" to="Rout"/>
<trip type="noVar" depart="464" id="SflowRL.44" from="Rin" to="Lout"/>
<trip type="noVar" depart="465" id="SflowUD.33" from="Uin" to="Dout"/>
<trip type="noVar" depart="465" id="SflowDU.33" from="Din" to="Uout"/>
<trip type="noVar" depart="466" id="SflowLU.22" from="Lin" to="Uout"/>
<trip type="noVar" depart="466" id="SflowLD.22" from="Lin" to="Dout"/>
<trip type="noVar" depart="466" id="SflowRU.22" from="Rin" to="Uout"/>
<trip type="noVar" depart="466" id="SflowRD.22" from="Rin" to="Dout"/>
<trip type="noVar" depart="471" id="SflowUL.11" from="Uin" to="Lout"/>
<trip type="noVar" depart="471" id="SflowUR.11" from="Uin" to="Rout"/>
<trip type="noVar" depart="471" id="SflowDL.11" from="Din" to="Lout"/>
<trip type="noVar" depart="471" id="SflowDR.11" from="Din" to="Rout"/>
<trip type="noVar" depart="474" id="SflowLR.45" from="Lin" to="Rout"/>
<trip type="noVar" depart="474" id="SflowRL.45" from="Rin" to="Lout"/>
<trip type="noVar" depart="479" id="SflowUD.34" from="Uin" to="Dout"/>
<trip type="noVar" depart="479" id="SflowDU.34" from="Din" to="Uout"/>
<trip type="noVar" depart="485" id="SflowLR.46" from="Lin" to="Rout"/>
<trip type="noVar" depart="485" id="SflowRL.46" from="Rin" to="Lout"/>
<trip type="noVar" depart="487" id="SflowLU.23" from="Lin" to="Uout"/>
<trip type="noVar" depart="487" id="SflowLD.23" from="Lin" to="Dout"/>
<trip type="noVar" depart="487" id="SflowRU.23" from="Rin" to="Uout"/>
<trip type="noVar" depart="487" id="SflowRD.23" from="Rin" to="Dout"/>
<trip type="noVar" depart="493" id="SflowUD.35" from="Uin" to="Dout"/>
<trip type="noVar" depart="493" id="SflowDU.35" from="Din" to="Uout"/>
<trip type="noVar" depart="495" id="SflowLR.47" from="Lin" to="Rout"/>
<trip type="noVar" depart="495" id="SflowRL.47" from="Rin" to="Lout"/>
<trip type="noVar" depart="506" id="SflowLR.48" from="Lin" to="Rout"/>
<trip type="noVar" depart="506" id="SflowRL.48" from="Rin" to="Lout"/>
<trip type="noVar" depart="507" id="SflowUD.36" from="Uin" to="Dout"/>
<trip type="noVar" depart="507" id="SflowDU.36" from="Din" to="Uout"/>
<trip type="noVar" depart="509" id="SflowLU.24" from="Lin" to="Uout"/>
<trip type="noVar" depart="509" id="SflowLD.24" from="Lin" to="Dout"/>
<trip type="noVar" depart="509" id="SflowRU.24" from="Rin" to="Uout"/>
<trip type="noVar" depart="509" id="SflowRD.24" from="Rin" to="Dout"/>
<trip type="noVar" depart="514" id="SflowUL.12" from="Uin" to="Lout"/>
<trip type="noVar" depart="514" id="SflowUR.12" from="Uin" to="Rout"/>
<trip type="noVar" depart="514" id="SflowDL.12" from="Din" to="Lout"/>
<trip type="noVar" depart="514" id="SflowDR.12" from="Din" to="Rout"/>
<trip type="noVar" depart="517" id="SflowLR.49" from="Lin" to="Rout"/>
<trip type="noVar" depart="517" id="SflowRL.49" from="Rin" to="Lout"/>
<trip type="noVar" depart="521" id="SflowUD.37" from="Uin" to="Dout"/>
<trip type="noVar" depart="521" id="SflowDU.37" from="Din" to="Uout"/>
<trip type="noVar" depart="527" id="SflowLR.50" from="Lin" to="Rout"/>
<trip type="noVar" depart="527" id="SflowRL.50" from="Rin" to="Lout"/>
<trip type="noVar" depart="530" id="SflowLU.25" from="Lin" to="Uout"/>
<trip type="noVar" depart="530" id="SflowLD.25" from="Lin" to="Dout"/>
<trip type="noVar" depart="530" id="SflowRU.25" from="Rin" to="Uout"/>
<trip type="noVar" depart="530" id="SflowRD.25" from="Rin" to="Dout"/>
<trip type="noVar" depart="535" id="SflowUD.38" from="Uin" to="Dout"/>
<trip type="noVar" depart="535" id="SflowDU.38" from="Din" to="Uout"/>
<trip type="noVar" depart="538" id="SflowLR.51" from="Lin" to="Rout"/>
<trip type="noVar" depart="538" id="SflowRL.51" from="Rin" to="Lout"/>
<trip type="noVar" depart="548" id="SflowLR.52" from="Lin" to="Rout"/>
<trip type="noVar" depart="548" id="SflowRL.52" from="Rin" to="Lout"/>
<trip type="noVar" depart="549" id="SflowUD.39" from="Uin" to="Dout"/>
<trip type="noVar" depart="549" id="SflowDU.39" from="Din" to="Uout"/>
<trip type="noVar" depart="551" id="SflowLU.26" from="Lin" to="Uout"/>
<trip type="noVar" depart="551" id="SflowLD.26" from="Lin" to="Dout"/>
<trip type="noVar" depart="551" id="SflowRU.26" from="Rin" to="Uout"/>
<trip type="noVar" depart="551" id="SflowRD.26" from="Rin" to="Dout"/>
<trip type="noVar" depart="557" id="SflowUL.13" from="Uin" to="Lout"/>
<trip type="noVar" depart="557" id="SflowUR.13" from="Uin" to="Rout"/>
<trip type="noVar" depart="557" id="SflowDL.13" from="Din" to="Lout"/>
<trip type="noVar" depart="557" id="SflowDR.13" from="Din" to="Rout"/>
<trip type="noVar" depart="559" id="SflowLR.53" from="Lin" to="Rout"/>
<trip type="noVar" depart="559" id="SflowRL.53" from="Rin" to="Lout"/>
<trip type="noVar" depart="563" id="SflowUD.40" from="Uin" to="Dout"/>
<trip type="noVar" depart="563" id="SflowDU.40" from="Din" to="Uout"/>
<trip type="noVar" depart="569" id="SflowLR.54" from="Lin" to="Rout"/>
<trip type="noVar" depart="569" id="SflowRL.54" from="Rin" to="Lout"/>
<trip type="noVar" depart="572" id="SflowLU.27" from="Lin" to="Uout"/>
<trip type="noVar" depart="572" id="SflowLD.27" from="Lin" to="Dout"/>
<trip type="noVar" depart="572" id="SflowRU.27" from="Rin" to="Uout"/>
<trip type="noVar" depart="572" id="SflowRD.27" from="Rin" to="Dout"/>
<trip type="noVar" depart="577" id="SflowUD.41" from="Uin" to="Dout"/>
<trip type="noVar" depart="577" id="SflowDU.41" from="Din" to="Uout"/>
<trip type="noVar" depart="580" id="SflowLR.55" from="Lin" to="Rout"/>
<trip type="noVar" depart="580" id="SflowRL.55" from="Rin" to="Lout"/>
<trip type="noVar" depart="590" id="SflowLR.56" from="Lin" to="Rout"/>
<trip type="noVar" depart="590" id="SflowRL.56" from="Rin" to="Lout"/>
<trip type="noVar" depart="591" id="SflowUD.42" from="Uin" to="Dout"/>
<trip type="noVar" depart="591" id="SflowDU.42" from="Din" to="Uout"/>
<trip type="noVar" depart="593" id="SflowLU.28" from="Lin" to="Uout"/>
<trip type="noVar" depart="593" id="SflowLD.28" from="Lin" to="Dout"/>
<trip type="noVar" depart="593" id="SflowRU.28" from="Rin" to="Uout"/>
<trip type="noVar" depart="593" id="SflowRD.28" from="Rin" to="Dout"/>
<trip type="noVar" depart="600" id="SflowUL.14" from="Uin" to="Lout"/>
<trip type="noVar" depart="600" id="SflowUR.14" from="Uin" to="Rout"/>
<trip type="noVar" depart="600" id="SflowDL.14" from="Din" to="Lout"/>
<trip type="noVar" depart="600" id="SflowDR.14" from="Din" to="Rout"/>
<trip type="noVar" depart="601" id="SflowLR.57" from="Lin" to="Rout"/>
<trip type="noVar" depart="601" id="SflowRL.57" from="Rin" to="Lout"/>
<trip type="noVar" depart="606" id="SflowUD.43" from="Uin" to="Dout"/>
<trip type="noVar" depart="606" id="SflowDU.43" from="Din" to="Uout"/>
<trip type="noVar" depart="612" id="SflowLR.58" from="Lin" to="Rout"/>
<trip type="noVar" depart="612" id="SflowRL.58" from="Rin" to="Lout"/>
<trip type="noVar" depart="615" id="SflowLU.29" from="Lin" to="Uout"/>
<trip type="noVar" depart="615" id="SflowLD.29" from="Lin" to="Dout"/>
<trip type="noVar" depart="615" id="SflowRU.29" from="Rin" to="Uout"/>
<trip type="noVar" depart="615" id="SflowRD.29" from="Rin" to="Dout"/>
<trip type="noVar" depart="620" id="SflowUD.44" from="Uin" to="Dout"/>
<trip type="noVar" depart="620" id="SflowDU.44" from="Din" to="Uout"/>
<trip type="noVar" depart="622" id="SflowLR.59" from="Lin" to="Rout"/>
<trip type="noVar" depart="622" id="SflowRL.59" from="Rin" to="Lout"/>
<trip type="noVar" depart="633" id="SflowLR.60" from="Lin" to="Rout"/>
<trip type="noVar" depart="633" id="SflowRL.60" from="Rin" to="Lout"/>
<trip type="noVar" depart="634" id="SflowUD.45" from="Uin" to="Dout"/>
<trip type="noVar" depart="634" id="SflowDU.45" from="Din" to="Uout"/>
<trip type="noVar" depart="636" id="SflowLU.30" from="Lin" to="Uout"/>
<trip type="noVar" depart="636" id="SflowLD.30" from="Lin" to="Dout"/>
<trip type="noVar" depart="636" id="SflowRU.30" from="Rin" to="Uout"/>
<trip type="noVar" depart="636" id="SflowRD.30" from="Rin" to="Dout"/>
<trip type="noVar" depart="642" id="SflowUL.15" from="Uin" to="Lout"/>
<trip type="noVar" depart="642" id="SflowUR.15" from="Uin" to="Rout"/>
<trip type="noVar" depart="642" id="SflowDL.15" from="Din" to="Lout"/>
<trip type="noVar" depart="642" id="SflowDR.15" from="Din" to="Rout"/>
<trip type="noVar" depart="643" id="SflowLR.61" from="Lin" to="Rout"/>
<trip type="noVar" depart="643" id="SflowRL.61" from="Rin" to="Lout"/>
<trip type="noVar" depart="648" id="SflowUD.46" from="Uin" to="Dout"/>
<trip type="noVar" depart="648" id="SflowDU.46" from="Din" to="Uout"/>
<trip type="noVar" depart="654" id="SflowLR.62" from="Lin" to="Rout"/>
<trip type="noVar" depart="654" id="SflowRL.62" from="Rin" to="Lout"/>
<trip type="noVar" depart="657" id="SflowLU.31" from="Lin" to="Uout"/>
<trip type="noVar" depart="657" id="SflowLD.31" from="Lin" to="Dout"/>
<trip type="noVar" depart="657" id="SflowRU.31" from="Rin" to="Uout"/>
<trip type="noVar" depart="657" id="SflowRD.31" from="Rin" to="Dout"/>
<trip type="noVar" depart="662" id="SflowUD.47" from="Uin" to="Dout"/>
<trip type="noVar" depart="662" id="SflowDU.47" from="Din" to="Uout"/>
<trip type="noVar" depart="664" id="SflowLR.63" from="Lin" to="Rout"/>
<trip type="noVar" depart="664" id="SflowRL.63" from="Rin" to="Lout"/>
<trip type="noVar" depart="675" id="SflowLR.64" from="Lin" to="Rout"/>
<trip type="noVar" depart="675" id="SflowRL.64" from="Rin" to="Lout"/>
<trip type="noVar" depart="676" id="SflowUD.48" from="Uin" to="Dout"/>
<trip type="noVar" depart="676" id="SflowDU.48" from="Din" to="Uout"/>
<trip type="noVar" depart="678" id="SflowLU.32" from="Lin" to="Uout"/>
<trip type="noVar" depart="678" id="SflowLD.32" from="Lin" to="Dout"/>