<?xml version="1.0" encoding="UTF-8"?>
<routes xmlns:xsi="http://www.w3.org/2001/XMLSchema-instance" xsi:noNamespaceSchemaLocation="http://sumo.dlr.de/xsd/routes_file.xsd">

<vType id="noVar" />
<route id="route_fl14_st0.0.0" edges=" 14 13 10 11 9" />
<vehicle depart="1" id="fl14_st0.0.0" route="route_fl14_st0.0.0" />
<route id="route_fl14_st0.0.1" edges=" 14 13 10 11 9" />
<vehicle depart="4" id="fl14_st0.0.1" route="route_fl14_st0.0.1" />
<route id="route_fl1_st0.0.0" edges=" 1 6 3 16 20 24 40 46" />
<vehicle depart="4" id="fl1_st0.0.0" route="route_fl1_st0.0.0" />
<route id="route_fl14_st0.0.2" edges=" 14 16 20 24 25 28 35" />
<vehicle depart="6" id="fl14_st0.0.2" route="route_fl14_st0.0.2" />
<route id="route_fl1_st0.0.1" edges=" 1 6 3 16 20 24 40 46" />
<vehicle depart="7" id="fl1_st0.0.1" route="route_fl1_st0.0.1" />
<route id="route_fl14_st0.0.3" edges=" 14 13 10 11 9" />
<vehicle depart="7" id="fl14_st0.0.3" route="route_fl14_st0.0.3" />
<route id="route_fl43_st0.0.0" edges=" 43 42 41 23 19 18 17 15" />
<vehicle depart="8" id="fl43_st0.0.0" route="route_fl43_st0.0.0" />
<route id="route_fl1_st0.0.2" edges=" 1 6 3 16 20 24 25 28 35" />
<vehicle depart="10" id="fl1_st0.0.2" route="route_fl1_st0.0.2" />
<route id="route_fl36_st0.0.0" edges=" 36 34 26 27 23 19 18 17 13 10 11 9" />
<vehicle depart="11" id="fl36_st0.0.0" route="route_fl36_st0.0.0" />
<route id="route_fl21_st0.0.0" edges=" 21 24 40 46" />
<vehicle depart="12" id="fl21_st0.0.0" route="route_fl21_st0.0.0" />
<route id="route_fl1_st0.0.3" edges=" 1 6 3 16 20 22" />
<vehicle depart="13" id="fl1_st0.0.3" route="route_fl1_st0.0.3" />
<route id="route_fl36_st0.0.1" edges=" 36 34 26 27 23 19 18 17 15" />
<vehicle depart="14" id="fl36_st0.0.1" route="route_fl36_st0.0.1" />
<route id="route_fl43_st0.0.1" edges=" 43 46" />
<vehicle depart="19" id="fl43_st0.0.1" route="route_fl43_st0.0.1" />
<route id="route_fl47_st0.0.0" edges=" 47 45 42 41 23 19 18 17 13 10 11 48" />
<vehicle depart="20" id="fl47_st0.0.0" route="route_fl47_st0.0.0" />
<route id="route_fl21_st0.0.1" edges=" 21 24 38" />
<vehicle depart="20" id="fl21_st0.0.1" route="route_fl21_st0.0.1" />
<route id="route_fl32_st0.0.0" edges=" 32 31 26 27 23 22" />
<vehicle depart="20" id="fl32_st0.0.0" route="route_fl32_st0.0.0" />
<route id="route_fl8_st0.0.0" edges=" 8 2 49 50" />
<vehicle depart="22" id="fl8_st0.0.0" route="route_fl8_st0.0.0" />
<route id="route_fl47_st0.0.1" edges=" 47 45 42 41 23 19 18 17 15" />
<vehicle depart="23" id="fl47_st0.0.1" route="route_fl47_st0.0.1" />
<route id="route_fl39_st0.0.0" edges=" 39 37 23 22" />
<vehicle depart="23" id="fl39_st0.0.0" route="route_fl39_st0.0.0" />
<route id="route_fl14_st0.0.4" edges=" 14 16 20 22" />
<vehicle depart="24" id="fl14_st0.0.4" route="route_fl14_st0.0.4" />
<route id="route_fl43_st0.0.2" edges=" 43 46" />
<vehicle depart="24" id="fl43_st0.0.2" route="route_fl43_st0.0.2" />
<route id="route_fl8_st0.0.1" edges=" 8 2 3 16 20 24 40 46" />
<vehicle depart="25" id="fl8_st0.0.1" route="route_fl8_st0.0.1" />
<route id="route_fl29_st0.0.0" edges=" 29 35" />
<vehicle depart="27" id="fl29_st0.0.0" route="route_fl29_st0.0.0" />
<route id="route_fl14_st0.0.5" edges=" 14 16 20 24 25 28 35" />
<vehicle depart="27" id="fl14_st0.0.5" route="route_fl14_st0.0.5" />
<route id="route_fl47_st0.0.2" edges=" 47 45 42 41 23 19 18 17 13 10 11 48" />
<vehicle depart="27" id="fl47_st0.0.2" route="route_fl47_st0.0.2" />
<route id="route_fl36_st0.0.2" edges=" 36 34 26 27 23 22" />
<vehicle depart="29" id="fl36_st0.0.2" route="route_fl36_st0.0.2" />
<route id="route_fl14_st0.0.6" edges=" 14 16 20 24 40 46" />
<vehicle depart="30" id="fl14_st0.0.6" route="route_fl14_st0.0.6" />
<route id="route_fl47_st0.0.3" edges=" 47 45 42 41 23 22" />
<vehicle depart="30" id="fl47_st0.0.3" route="route_fl47_st0.0.3" />
<route id="route_fl32_st0.0.1" edges=" 32 31 35" />
<vehicle depart="32" id="fl32_st0.0.1" route="route_fl32_st0.0.1" />
<route id="route_fl14_st0.0.7" edges=" 14 16 20 24 25 28 35" />
<vehicle depart="33" id="fl14_st0.0.7" route="route_fl14_st0.0.7" />
<route id="route_fl47_st0.0.4" edges=" 47 45 42 41 23 19 18 17 13 10 11 9" />
<vehicle depart="33" id="fl47_st0.0.4" route="route_fl47_st0.0.4" />
<route id="route_fl39_st0.0.1" edges=" 39 37 40 46" />
<vehicle depart="34" id="fl39_st0.0.1" route="route_fl39_st0.0.1" />
<route id="route_fl21_st0.0.2" edges=" 21 24 40 46" />
<vehicle depart="35" id="fl21_st0.0.2" route="route_fl21_st0.0.2" />
<route id="route_fl29_st0.0.1" edges=" 29 26 27 38" />
<vehicle depart="35" id="fl29_st0.0.1" route="route_fl29_st0.0.1" />
<route id="route_fl47_st0.0.5" edges=" 47 45 42 41 23 19 18 17 15" />
<vehicle depart="36" id="fl47_st0.0.5" route="route_fl47_st0.0.5" />
<route id="route_fl21_st0.0.4" edges=" 21 19 18 17 13 10 11 9" />
<vehicle depart="36" id="fl21_st0.0.4" route="route_fl21_st0.0.4" />
<route id="route_fl21_st0.0.3" edges=" 21 24 40 46" />
<vehicle depart="37" id="fl21_st0.0.3" route="route_fl21_st0.0.3" />
<route id="route_fl43_st0.0.3" edges=" 43 46" />
<vehicle depart="37" id="fl43_st0.0.3" route="route_fl43_st0.0.3" />
<route id="route_fl36_st0.0.3" edges=" 36 34 26 27 40 46" />
<vehicle depart="37" id="fl36_st0.0.3" route="route_fl36_st0.0.3" />
<route id="route_fl1_st0.0.4" edges=" 1 5 9" />
<vehicle depart="39" id="fl1_st0.0.4" route="route_fl1_st0.0.4" />
<route id="route_fl47_st0.0.6" edges=" 47 45 42 41 23 22" />
<vehicle depart="40" id="fl47_st0.0.6" route="route_fl47_st0.0.6" />
<route id="route_fl8_st0.0.2" edges=" 8 2 3 16 20 24 38" />
<vehicle depart="40" id="fl8_st0.0.2" route="route_fl8_st0.0.2" />
<route id="route_fl21_st0.0.5" edges=" 21 24 25 28 30" />
<vehicle depart="41" id="fl21_st0.0.5" route="route_fl21_st0.0.5" />
<route id="route_fl8_st0.0.3" edges=" 8 2 49 50" />
<vehicle depart="44" id="fl8_st0.0.3" route="route_fl8_st0.0.3" />
<route id="route_fl47_st0.0.7" edges=" 47 45 42 41 23 19 18 17 13 10 11 48" />
<vehicle depart="46" id="fl47_st0.0.7" route="route_fl47_st0.0.7" />
<route id="route_fl21_st0.0.6" edges=" 21 24 40 46" />
<vehicle depart="48" id="fl21_st0.0.6" route="route_fl21_st0.0.6" />
<route id="route_fl8_st0.0.4" edges=" 8 2 3 16 20 24 40 46" />
<vehicle depart="49" id="fl8_st0.0.4" route="route_fl8_st0.0.4" />
<route id="route_fl36_st0.0.4" edges=" 36 34 26 27 23 22" />
<vehicle depart="50" id="fl36_st0.0.4" route="route_fl36_st0.0.4" />
<route id="route_fl1_st0.0.5" edges=" 1 6 3 16 20 24 40 44" />
<vehicle depart="50" id="fl1_st0.0.5" route="route_fl1_st0.0.5" />
<route id="route_fl21_st0.0.7" edges=" 21 24 40 46" />
<vehicle depart="51" id="fl21_st0.0.7" route="route_fl21_st0.0.7" />
<route id="route_fl39_st0.0.2" edges=" 39 37 23 19 18 17 15" />
<vehicle depart="51" id="fl39_st0.0.2" route="route_fl39_st0.0.2" />
<route id="route_fl21_st0.0.8" edges=" 21 24 38" />
<vehicle depart="52" id="fl21_st0.0.8" route="route_fl21_st0.0.8" />
<route id="route_fl14_st0.0.8" edges=" 14 16 20 24 25 28 35" />
<vehicle depart="52" id="fl14_st0.0.8" route="route_fl14_st0.0.8" />
<route id="route_fl1_st0.0.6" edges=" 1 6 3 16 20 24 40 46" />
<vehicle depart="53" id="fl1_st0.0.6" route="route_fl1_st0.0.6" />
<route id="route_fl14_st0.0.9" edges=" 14 13 10 11 48" />
<vehicle depart="53" id="fl14_st0.0.9" route="route_fl14_st0.0.9" />
<route id="route_fl1_st0.0.7" edges=" 1 6 3 15" />
<vehicle depart="56" id="fl1_st0.0.7" route="route_fl1_st0.0.7" />
<route id="route_fl36_st0.0.5" edges=" 36 34 26 27 23 19 18 17 15" />
<vehicle depart="60" id="fl36_st0.0.5" route="route_fl36_st0.0.5" />
<route id="route_fl43_st0.0.4" edges=" 43 42 41 23 19 18 17 13 10 11 48" />
<vehicle depart="61" id="fl43_st0.0.4" route="route_fl43_st0.0.4" />
<route id="route_fl8_st0.0.5" edges=" 8 2 3 16 20 24 38" />
<vehicle depart="62" id="fl8_st0.0.5" route="route_fl8_st0.0.5" />
<route id="route_fl29_st0.0.2" edges=" 29 35" />
<vehicle depart="62" id="fl29_st0.0.2" route="route_fl29_st0.0.2" />
<route id="route_fl1_st0.0.8" edges=" 1 6 3 16 20 24 40 46" />
<vehicle depart="62" id="fl1_st0.0.8" route="route_fl1_st0.0.8" />
<route id="route_fl43_st0.0.5" edges=" 43 42 41 23 19 18 17 13 10 11 9" />
<vehicle depart="64" id="fl43_st0.0.5" route="route_fl43_st0.0.5" />
<route id="route_fl36_st0.0.6" edges=" 36 34 26 27 40 46" />
<vehicle depart="64" id="fl36_st0.0.6" route="route_fl36_st0.0.6" />
<route id="route_fl14_st0.0.10" edges=" 14 16 20 24 40 46" />
<vehicle depart="65" id="fl14_st0.0.10" route="route_fl14_st0.0.10" />
<route id="route_fl8_st0.0.6" edges=" 8 2 48" />
<vehicle depart="66" id="fl8_st0.0.6" route="route_fl8_st0.0.6" />
<route id="route_fl1_st0.0.9" edges=" 1 6 3 15" />
<vehicle depart="66" id="fl1_st0.0.9" route="route_fl1_st0.0.9" />
<route id="route_fl21_st0.0.9" edges=" 21 24 40 44" />
<vehicle depart="67" id="fl21_st0.0.9" route="route_fl21_st0.0.9" />
<route id="route_fl14_st0.0.11" edges=" 14 13 10 11 9" />
<vehicle depart="67" id="fl14_st0.0.11" route="route_fl14_st0.0.11" />
<route id="route_fl8_st0.0.7" edges=" 8 2 49 50" />
<vehicle depart="69" id="fl8_st0.0.7" route="route_fl8_st0.0.7" />
<route id="route_fl1_st0.0.10" edges=" 1 5 49 50" />
<vehicle depart="69" id="fl1_st0.0.10" route="route_fl1_st0.0.10" />
<route id="route_fl47_st0.0.8" edges=" 47 45 42 41 23 22" />
<vehicle depart="69" id="fl47_st0.0.8" route="route_fl47_st0.0.8" />
<route id="route_fl14_st0.0.12" edges=" 14 13 10 11 9" />
<vehicle depart="70" id="fl14_st0.0.12" route="route_fl14_st0.0.12" />
<route id="route_fl21_st0.0.10" edges=" 21 24 40 46" />
<vehicle depart="71" id="fl21_st0.0.10" route="route_fl21_st0.0.10" />
<route id="route_fl14_st0.0.13" edges=" 14 16 20 24 40 46" />
<vehicle depart="71" id="fl14_st0.0.13" route="route_fl14_st0.0.13" />
<route id="route_fl1_st0.0.11" edges=" 1 5 9" />
<vehicle depart="71" id="fl1_st0.0.11" route="route_fl1_st0.0.11" />
<route id="route_fl8_st0.0.8" edges=" 8 2 3 16 20 22" />
<vehicle depart="72" id="fl8_st0.0.8" route="route_fl8_st0.0.8" />
<route id="route_fl47_st0.0.9" edges=" 47 45 42 41 23 19 18 17 13 10 11 9" />
<vehicle depart="72" id="fl47_st0.0.9" route="route_fl47_st0.0.9" />
<route id="route_fl7_st0.0.0" edges=" 7 4 3 16 20 24 25 28 30" />
<vehicle depart="72" id="fl7_st0.0.0" route="route_fl7_st0.0.0" />
<route id="route_fl47_st0.0.10" edges=" 47 45 42 41 23 22" />
<vehicle depart="75" id="fl47_st0.0.10" route="route_fl47_st0.0.10" />
<route id="route_fl1_st0.0.12" edges=" 1 6 3 16 20 24 25 28 30" />
<vehicle depart="75" id="fl1_st0.0.12" route="route_fl1_st0.0.12" />
<route id="route_fl36_st0.0.7" edges=" 36 34 26 27 23 19 18 17 15" />
<vehicle depart="76" id="fl36_st0.0.7" route="route_fl36_st0.0.7" />
<route id="route_fl8_st0.0.9" edges=" 8 2 3 16 20 24 40 46" />
<vehicle depart="76" id="fl8_st0.0.9" route="route_fl8_st0.0.9" />
<route id="route_fl14_st0.0.14" edges=" 14 16 20 24 40 46" />
<vehicle depart="77" id="fl14_st0.0.14" route="route_fl14_st0.0.14" />
<route id="route_fl21_st0.0.11" edges=" 21 19 18 17 15" />
<vehicle depart="77" id="fl21_st0.0.11" route="route_fl21_st0.0.11" />
<route id="route_fl1_st0.0.13" edges=" 1 6 3 16 20 24 40 46" />
<vehicle depart="79" id="fl1_st0.0.13" route="route_fl1_st0.0.13" />
<route id="route_fl39_st0.0.3" edges=" 39 37 23 19 18 17 15" />
<vehicle depart="80" id="fl39_st0.0.3" route="route_fl39_st0.0.3" />
<route id="route_fl36_st0.0.8" edges=" 36 34 30" />
<vehicle depart="80" id="fl36_st0.0.8" route="route_fl36_st0.0.8" />
<route id="route_fl47_st0.0.11" edges=" 47 45 42 41 23 22" />
<vehicle depart="81" id="fl47_st0.0.11" route="route_fl47_st0.0.11" />
<route id="route_fl14_st0.0.15" edges=" 14 16 20 24 38" />
<vehicle depart="82" id="fl14_st0.0.15" route="route_fl14_st0.0.15" />
<route id="route_fl36_st0.0.9" edges=" 36 34 30" />
<vehicle depart="83" id="fl36_st0.0.9" route="route_fl36_st0.0.9" />
<route id="route_fl47_st0.0.12" edges=" 47 45 42 41 23 19 18 17 13 10 11 9" />
<vehicle depart="85" id="fl47_st0.0.12" route="route_fl47_st0.0.12" />
<route id="route_fl8_st0.0.10" edges=" 8 2 3 15" />
<vehicle depart="85" id="fl8_st0.0.10" route="route_fl8_st0.0.10" />
<route id="route_fl36_st0.0.10" edges=" 36 34 26 27 40 46" />
<vehicle depart="87" id="fl36_st0.0.10" route="route_fl36_st0.0.10" />
<route id="route_fl43_st0.0.6" edges=" 43 42 41 23 19 18 17 13 10 11 48" />
<vehicle depart="88" id="fl43_st0.0.6" route="route_fl43_st0.0.6" />
<route id="route_fl21_st0.0.14" edges=" 21 24 25 28 35" />
<vehicle depart="91" id="fl21_st0.0.14" route="route_fl21_st0.0.14" />
<route id="route_fl47_st0.0.13" edges=" 47 45 42 41 23 19 18 17 15" />
<vehicle depart="92" id="fl47_st0.0.13" route="route_fl47_st0.0.13" />
<route id="route_fl14_st0.0.16" edges=" 14 16 20 24 25 28 35" />
<vehicle depart="92" id="fl14_st0.0.16" route="route_fl14_st0.0.16" />
<route id="route_fl29_st0.0.3" edges=" 29 35" />
<vehicle depart="93" id="fl29_st0.0.3" route="route_fl29_st0.0.3" />
<route id="route_fl14_st0.0.17" edges=" 14 16 20 22" />
<vehicle depart="95" id="fl14_st0.0.17" route="route_fl14_st0.0.17" />
<route id="route_fl47_st0.0.14" edges=" 47 45 42 41 23 19 18 17 13 10 11 9" />
<vehicle depart="95" id="fl47_st0.0.14" route="route_fl47_st0.0.14" />
<route id="route_fl36_st0.0.11" edges=" 36 34 26 27 23 19 18 17 13 10 11 48" />
<vehicle depart="95" id="fl36_st0.0.11" route="route_fl36_st0.0.11" />
<route id="route_fl39_st0.0.4" edges=" 39 37 40 46" />
<vehicle depart="99" id="fl39_st0.0.4" route="route_fl39_st0.0.4" />
<route id="route_fl1_st0.0.14" edges=" 1 6 3 16 20 24 40 46" />
<vehicle depart="101" id="fl1_st0.0.14" route="route_fl1_st0.0.14" />
<route id="route_fl39_st0.0.5" edges=" 39 37 40 46" />
<vehicle depart="102" id="fl39_st0.0.5" route="route_fl39_st0.0.5" />
<route id="route_fl36_st0.0.12" edges=" 36 34 33" />
<vehicle depart="102" id="fl36_st0.0.12" route="route_fl36_st0.0.12" />
<route id="route_fl21_st0.0.12" edges=" 21 24 40 46" />
<vehicle depart="103" id="fl21_st0.0.12" route="route_fl21_st0.0.12" />
<route id="route_fl8_st0.0.11" edges=" 8 2 3 16 20 22" />
<vehicle depart="104" id="fl8_st0.0.11" route="route_fl8_st0.0.11" />
<route id="route_fl47_st0.0.15" edges=" 47 45 42 41 38" />
<vehicle depart="105" id="fl47_st0.0.15" route="route_fl47_st0.0.15" />
<route id="route_fl43_st0.0.7" edges=" 43 42 41 23 22" />
<vehicle depart="105" id="fl43_st0.0.7" route="route_fl43_st0.0.7" />
<route id="route_fl21_st0.0.15" edges=" 21 24 25 28 33" />
<vehicle depart="106" id="fl21_st0.0.15" route="route_fl21_st0.0.15" />
<route id="route_fl8_st0.0.12" edges=" 8 2 3 16 20 24 38" />
<vehicle depart="107" id="fl8_st0.0.12" route="route_fl8_st0.0.12" />
<route id="route_fl47_st0.0.16" edges=" 47 45 42 41 23 19 18 17 13 10 11 9" />
<vehicle depart="108" id="fl47_st0.0.16" route="route_fl47_st0.0.16" />
<route id="route_fl1_st0.0.15" edges=" 1 6 3 16 20 24 40 46" />
<vehicle depart="108" id="fl1_st0.0.15" route="route_fl1_st0.0.15" />
<route id="route_fl8_st0.0.13" edges=" 8 2 3 16 20 24 40 46" />
<vehicle depart="110" id="fl8_st0.0.13" route="route_fl8_st0.0.13" />
<route id="route_fl1_st0.0.16" edges=" 1 6 3 16 20 22" />
<vehicle depart="111" id="fl1_st0.0.16" route="route_fl1_st0.0.16" />
<route id="route_fl8_st0.0.14" edges=" 8 2 48" />
<vehicle depart="113" id="fl8_st0.0.14" route="route_fl8_st0.0.14" />
<route id="route_fl14_st0.0.18" edges=" 14 16 20 24 40 46" />
<vehicle depart="113" id="fl14_st0.0.18" route="route_fl14_st0.0.18" />
<route id="route_fl47_st0.0.17" edges=" 47 45 42 41 23 22" />
<vehicle depart="113" id="fl47_st0.0.17" route="route_fl47_st0.0.17" />
<route id="route_fl8_st0.0.15" edges=" 8 2 3 16 20 24 38" />
<vehicle depart="116" id="fl8_st0.0.15" route="route_fl8_st0.0.15" />
<route id="route_fl1_st0.0.17" edges=" 1 6 3 16 20 24 25 28 35" />
<vehicle depart="116" id="fl1_st0.0.17" route="route_fl1_st0.0.17" />
<route id="route_fl47_st0.0.18" edges=" 47 45 42 41 23 19 18 17 13 10 11 9" />
<vehicle depart="116" id="fl47_st0.0.18" route="route_fl47_st0.0.18" />
<route id="route_fl36_st0.0.13" edges=" 36 34 26 27 23 22" />
<vehicle depart="117" id="fl36_st0.0.13" route="route_fl36_st0.0.13" />
<route id="route_fl21_st0.0.16" edges=" 21 19 18 17 13 10 11 9" />
<vehicle depart="117" id="fl21_st0.0.16" route="route_fl21_st0.0.16" />
<route id="route_fl7_st0.0.1" edges=" 7 4 3 16 20 24 40 46" />
<vehicle depart="118" id="fl7_st0.0.1" route="route_fl7_st0.0.1" />
<route id="route_fl1_st0.0.18" edges=" 1 6 3 15" />
<vehicle depart="119" id="fl1_st0.0.18" route="route_fl1_st0.0.18" />
<route id="route_fl14_st0.0.19" edges=" 14 15" />
<vehicle depart="119" id="fl14_st0.0.19" route="route_fl14_st0.0.19" />
<route id="route_fl36_st0.0.14" edges=" 36 34 26 27 23 19 18 17 13 10 11 9" />
<vehicle depart="120" id="fl36_st0.0.14" route="route_fl36_st0.0.14" />
<route id="route_fl1_st0.0.19" edges=" 1 6 3 16 20 24 40 46" />
<vehicle depart="122" id="fl1_st0.0.19" route="route_fl1_st0.0.19" />
<route id="route_fl14_st0.0.20" edges=" 14 16 20 24 40 46" />
<vehicle depart="123" id="fl14_st0.0.20" route="route_fl14_st0.0.20" />
<route id="route_fl8_st0.0.16" edges=" 8 2 3 16 20 24 40 46" />
<vehicle depart="123" id="fl8_st0.0.16" route="route_fl8_st0.0.16" />
<route id="route_fl47_st0.0.19" edges=" 47 45 42 41 23 19 18 17 15" />
<vehicle depart="123" id="fl47_st0.0.19" route="route_fl47_st0.0.19" />
<route id="route_fl21_st0.0.13" edges=" 21 24 40 46" />
<vehicle depart="125" id="fl21_st0.0.13" route="route_fl21_st0.0.13" />
<route id="route_fl1_st0.0.20" edges=" 1 6 3 16 20 22" />
<vehicle depart="125" id="fl1_st0.0.20" route="route_fl1_st0.0.20" />
<route id="route_fl47_st0.0.20" edges=" 47 45 42 41 23 19 18 17 13 10 11 48" />
<vehicle depart="126" id="fl47_st0.0.20" route="route_fl47_st0.0.20" />
<route id="route_fl14_st0.0.21" edges=" 14 16 20 24 40 46" />
<vehicle depart="126" id="fl14_st0.0.21" route="route_fl14_st0.0.21" />
<route id="route_fl21_st0.0.19" edges=" 21 24 25 28 33" />
<vehicle depart="126" id="fl21_st0.0.19" route="route_fl21_st0.0.19" />
<route id="route_fl8_st0.0.17" edges=" 8 2 49 50" />
<vehicle depart="128" id="fl8_st0.0.17" route="route_fl8_st0.0.17" />
<route id="route_fl14_st0.0.22" edges=" 14 16 20 24 25 28 30" />
<vehicle depart="129" id="fl14_st0.0.22" route="route_fl14_st0.0.22" />
<route id="route_fl21_st0.0.20" edges=" 21 19 18 17 13 10 12 50" />
<vehicle depart="129" id="fl21_st0.0.20" route="route_fl21_st0.0.20" />
<route id="route_fl1_st0.0.21" edges=" 1 6 3 15" />
<vehicle depart="129" id="fl1_st0.0.21" route="route_fl1_st0.0.21" />
<route id="route_fl47_st0.0.21" edges=" 47 45 42 41 23 22" />
<vehicle depart="130" id="fl47_st0.0.21" route="route_fl47_st0.0.21" />
<route id="route_fl1_st0.0.22" edges=" 1 6 3 15" />
<vehicle depart="132" id="fl1_st0.0.22" route="route_fl1_st0.0.22" />
<route id="route_fl14_st0.0.23" edges=" 14 13 10 11 9" />
<vehicle depart="133" id="fl14_st0.0.23" route="route_fl14_st0.0.23" />
<route id="route_fl21_st0.0.17" edges=" 21 24 40 46" />
<vehicle depart="134" id="fl21_st0.0.17" route="route_fl21_st0.0.17" />
<route id="route_fl14_st0.0.24" edges=" 14 16 20 22" />
<vehicle depart="134" id="fl14_st0.0.24" route="route_fl14_st0.0.24" />
<route id="route_fl21_st0.0.21" edges=" 21 19 18 17 15" />
<vehicle depart="134" id="fl21_st0.0.21" route="route_fl21_st0.0.21" />
<route id="route_fl1_st0.0.23" edges=" 1 6 3 16 20 24 40 46" />
<vehicle depart="135" id="fl1_st0.0.23" route="route_fl1_st0.0.23" />
<route id="route_fl21_st0.0.22" edges=" 21 19 18 17 15" />
<vehicle depart="137" id="fl21_st0.0.22" route="route_fl21_st0.0.22" />
<route id="route_fl14_st0.0.25" edges=" 14 16 20 22" />
<vehicle depart="137" id="fl14_st0.0.25" route="route_fl14_st0.0.25" />
<route id="route_fl8_st0.0.18" edges=" 8 2 3 16 20 24 40 46" />
<vehicle depart="137" id="fl8_st0.0.18" route="route_fl8_st0.0.18" />
<route id="route_fl43_st0.0.8" edges=" 43 42 41 23 19 18 17 15" />
<vehicle depart="138" id="fl43_st0.0.8" route="route_fl43_st0.0.8" />
<route id="route_fl39_st0.0.6" edges=" 39 37 23 19 18 17 13 10 11 48" />
<vehicle depart="139" id="fl39_st0.0.6" route="route_fl39_st0.0.6" />
<route id="route_fl8_st0.0.19" edges=" 8 2 3 16 20 24 25 28 33" />
<vehicle depart="140" id="fl8_st0.0.19" route="route_fl8_st0.0.19" />
<route id="route_fl14_st0.0.26" edges=" 14 16 20 22" />
<vehicle depart="142" id="fl14_st0.0.26" route="route_fl14_st0.0.26" />
<route id="route_fl47_st0.0.22" edges=" 47 45 42 41 23 19 18 17 13 10 11 48" />
<vehicle depart="142" id="fl47_st0.0.22" route="route_fl47_st0.0.22" />
<route id="route_fl39_st0.0.7" edges=" 39 37 25 28 35" />
<vehicle depart="142" id="fl39_st0.0.7" route="route_fl39_st0.0.7" />
<route id="route_fl1_st0.0.24" edges=" 1 6 3 16 20 24 25 28 33" />
<vehicle depart="142" id="fl1_st0.0.24" route="route_fl1_st0.0.24" />
<route id="route_fl7_st0.0.2" edges=" 7 4 3 16 20 22" />
<vehicle depart="143" id="fl7_st0.0.2" route="route_fl7_st0.0.2" />
<route id="route_fl1_st0.0.25" edges=" 1 6 3 16 20 24 40 46" />
<vehicle depart="145" id="fl1_st0.0.25" route="route_fl1_st0.0.25" />
<route id="route_fl36_st0.0.15" edges=" 36 34 26 27 23 19 18 17 13 10 11 9" />
<vehicle depart="145" id="fl36_st0.0.15" route="route_fl36_st0.0.15" />
<route id="route_fl21_st0.0.24" edges=" 21 24 25 28 35" />
<vehicle depart="146" id="fl21_st0.0.24" route="route_fl21_st0.0.24" />
<route id="route_fl43_st0.0.9" edges=" 43 42 41 23 22" />
<vehicle depart="146" id="fl43_st0.0.9" route="route_fl43_st0.0.9" />
<route id="route_fl36_st0.0.16" edges=" 36 34 26 27 23 19 18 17 15" />
<vehicle depart="148" id="fl36_st0.0.16" route="route_fl36_st0.0.16" />
<route id="route_fl7_st0.0.3" edges=" 7 4 9" />
<vehicle depart="148" id="fl7_st0.0.3" route="route_fl7_st0.0.3" />
<route id="route_fl7_st0.0.4" edges=" 7 4 48" />
<vehicle depart="151" id="fl7_st0.0.4" route="route_fl7_st0.0.4" />
<route id="route_fl14_st0.0.27" edges=" 14 13 10 11 9" />
<vehicle depart="152" id="fl14_st0.0.27" route="route_fl14_st0.0.27" />
<route id="route_fl39_st0.0.8" edges=" 39 37 23 19 18 17 15" />
<vehicle depart="153" id="fl39_st0.0.8" route="route_fl39_st0.0.8" />
<route id="route_fl29_st0.0.4" edges=" 29 26 27 23 19 18 17 13 10 11 9" />
<vehicle depart="153" id="fl29_st0.0.4" route="route_fl29_st0.0.4" />
<route id="route_fl36_st0.0.17" edges=" 36 34 26 27 40 46" />
<vehicle depart="156" id="fl36_st0.0.17" route="route_fl36_st0.0.17" />
<route id="route_fl36_st0.0.18" edges=" 36 34 26 27 23 22" />
<vehicle depart="157" id="fl36_st0.0.18" route="route_fl36_st0.0.18" />
<route id="route_fl21_st0.0.18" edges=" 21 24 40 44" />
<vehicle depart="158" id="fl21_st0.0.18" route="route_fl21_st0.0.18" />
<route id="route_fl1_st0.0.26" edges=" 1 6 3 16 20 24 40 46" />
<vehicle depart="158" id="fl1_st0.0.26" route="route_fl1_st0.0.26" />
<route id="route_fl39_st0.0.9" edges=" 39 37 40 46" />
<vehicle depart="158" id="fl39_st0.0.9" route="route_fl39_st0.0.9" />
<route id="route_fl32_st0.0.2" edges=" 32 31 35" />
<vehicle depart="158" id="fl32_st0.0.2" route="route_fl32_st0.0.2" />
<route id="route_fl36_st0.0.19" edges=" 36 34 26 27 23 19 18 17 15" />
<vehicle depart="160" id="fl36_st0.0.19" route="route_fl36_st0.0.19" />
<route id="route_fl1_st0.0.27" edges=" 1 6 3 16 20 24 40 46" />
<vehicle depart="161" id="fl1_st0.0.27" route="route_fl1_st0.0.27" />
<route id="route_fl39_st0.0.10" edges=" 39 37 25 28 35" />
<vehicle depart="161" id="fl39_st0.0.10" route="route_fl39_st0.0.10" />
<route id="route_fl47_st0.0.23" edges=" 47 45 42 41 23 19 18 17 15" />
<vehicle depart="161" id="fl47_st0.0.23" route="route_fl47_st0.0.23" />
<route id="route_fl14_st0.0.28" edges=" 14 13 10 11 9" />
<vehicle depart="161" id="fl14_st0.0.28" route="route_fl14_st0.0.28" />
<route id="route_fl21_st0.0.25" edges=" 21 22" />
<vehicle depart="164" id="fl21_st0.0.25" route="route_fl21_st0.0.25" />
<route id="route_fl14_st0.0.29" edges=" 14 16 20 24 40 46" />
<vehicle depart="164" id="fl14_st0.0.29" route="route_fl14_st0.0.29" />
<route id="route_fl39_st0.0.11" edges=" 39 37 23 19 18 17 15" />
<vehicle depart="165" id="fl39_st0.0.11" route="route_fl39_st0.0.11" />
<route id="route_fl36_st0.0.20" edges=" 36 34 26 27 23 19 18 17 13 10 11 9" />
<vehicle depart="166" id="fl36_st0.0.20" route="route_fl36_st0.0.20" />
<route id="route_fl21_st0.0.26" edges=" 21 24 25 28 35" />
<vehicle depart="167" id="fl21_st0.0.26" route="route_fl21_st0.0.26" />
<route id="route_fl29_st0.0.5" edges=" 29 26 27 23 19 18 17 15" />
<vehicle depart="171" id="fl29_st0.0.5" route="route_fl29_st0.0.5" />
<route id="route_fl47_st0.0.24" edges=" 47 45 42 41 23 19 18 17 13 10 11 9" />
<vehicle depart="175" id="fl47_st0.0.24" route="route_fl47_st0.0.24" />
<route id="route_fl36_st0.0.21" edges=" 36 34 26 27 23 19 18 17 15" />
<vehicle depart="176" id="fl36_st0.0.21" route="route_fl36_st0.0.21" />
<route id="route_fl39_st0.0.12" edges=" 39 37 23 19 18 17 15" />
<vehicle depart="177" id="fl39_st0.0.12" route="route_fl39_st0.0.12" />
<route id="route_fl1_st0.0.28" edges=" 1 6 3 16 20 24 40 46" />
<vehicle depart="177" id="fl1_st0.0.28" route="route_fl1_st0.0.28" />
<route id="route_fl8_st0.0.20" edges=" 8 2 3 16 20 24 25 28 35" />
<vehicle depart="178" id="fl8_st0.0.20" route="route_fl8_st0.0.20" />
<route id="route_fl1_st0.0.29" edges=" 1 6 3 15" />
<vehicle depart="180" id="fl1_st0.0.29" route="route_fl1_st0.0.29" />
<route id="route_fl47_st0.0.25" edges=" 47 45 42 41 23 19 18 17 15" />
<vehicle depart="180" id="fl47_st0.0.25" route="route_fl47_st0.0.25" />
<route id="route_fl21_st0.0.28" edges=" 21 24 25 28 35" />
<vehicle depart="181" id="fl21_st0.0.28" route="route_fl21_st0.0.28" />
<route id="route_fl47_st0.0.26" edges=" 47 45 42 41 23 22" />
<vehicle depart="183" id="fl47_st0.0.26" route="route_fl47_st0.0.26" />
<route id="route_fl1_st0.0.30" edges=" 1 6 3 16 20 24 40 46" />
<vehicle depart="184" id="fl1_st0.0.30" route="route_fl1_st0.0.30" />
<route id="route_fl8_st0.0.21" edges=" 8 2 3 16 20 24 25 28 35" />
<vehicle depart="185" id="fl8_st0.0.21" route="route_fl8_st0.0.21" />
<route id="route_fl7_st0.0.5" edges=" 7 4 9" />
<vehicle depart="185" id="fl7_st0.0.5" route="route_fl7_st0.0.5" />
<route id="route_fl21_st0.0.29" edges=" 21 19 18 17 15" />
<vehicle depart="187" id="fl21_st0.0.29" route="route_fl21_st0.0.29" />
<route id="route_fl21_st0.0.23" edges=" 21 24 40 46" />
<vehicle depart="188" id="fl21_st0.0.23" route="route_fl21_st0.0.23" />
<route id="route_fl14_st0.0.30" edges=" 14 16 20 24 40 46" />
<vehicle depart="188" id="fl14_st0.0.30" route="route_fl14_st0.0.30" />
<route id="route_fl1_st0.0.31" edges=" 1 6 3 16 20 24 40 46" />
<vehicle depart="188" id="fl1_st0.0.31" route="route_fl1_st0.0.31" />
<route id="route_fl21_st0.0.30" edges=" 21 24 25 28 35" />
<vehicle depart="189" id="fl21_st0.0.30" route="route_fl21_st0.0.30" />
<route id="route_fl47_st0.0.27" edges=" 47 45 42 41 23 19 18 17 13 10 11 48" />
<vehicle depart="189" id="fl47_st0.0.27" route="route_fl47_st0.0.27" />
<route id="route_fl1_st0.0.32" edges=" 1 6 3 16 20 24 40 46" />
<vehicle depart="191" id="fl1_st0.0.32" route="route_fl1_st0.0.32" />
<route id="route_fl47_st0.0.28" edges=" 47 45 42 41 23 19 18 17 15" />
<vehicle depart="192" id="fl47_st0.0.28" route="route_fl47_st0.0.28" />
<route id="route_fl43_st0.0.10" edges=" 43 42 41 23 22" />
<vehicle depart="192" id="fl43_st0.0.10" route="route_fl43_st0.0.10" />
<route id="route_fl1_st0.0.33" edges=" 1 6 3 16 20 22" />
<vehicle depart="194" id="fl1_st0.0.33" route="route_fl1_st0.0.33" />
<route id="route_fl36_st0.0.22" edges=" 36 34 26 27 40 46" />
<vehicle depart="194" id="fl36_st0.0.22" route="route_fl36_st0.0.22" />
<route id="route_fl36_st0.0.23" edges=" 36 34 26 27 38" />
<vehicle depart="194" id="fl36_st0.0.23" route="route_fl36_st0.0.23" />
<route id="route_fl47_st0.0.29" edges=" 47 45 42 41 23 19 18 17 15" />
<vehicle depart="195" id="fl47_st0.0.29" route="route_fl47_st0.0.29" />
<route id="route_fl14_st0.0.31" edges=" 14 13 10 11 9" />
<vehicle depart="196" id="fl14_st0.0.31" route="route_fl14_st0.0.31" />
<route id="route_fl36_st0.0.24" edges=" 36 34 26 27 23 19 18 17 15" />
<vehicle depart="197" id="fl36_st0.0.24" route="route_fl36_st0.0.24" />
<route id="route_fl1_st0.0.34" edges=" 1 6 3 16 20 24 25 28 35" />
<vehicle depart="197" id="fl1_st0.0.34" route="route_fl1_st0.0.34" />
<route id="route_fl8_st0.0.22" edges=" 8 2 3 16 20 24 25 28 35" />
<vehicle depart="197" id="fl8_st0.0.22" route="route_fl8_st0.0.22" />
<route id="route_fl1_st0.0.35" edges=" 1 6 3 16 20 24 25 28 35" />
<vehicle depart="200" id="fl1_st0.0.35" route="route_fl1_st0.0.35" />
<route id="route_fl8_st0.0.23" edges=" 8 2 3 16 20 22" />
<vehicle depart="201" id="fl8_st0.0.23" route="route_fl8_st0.0.23" />
<route id="route_fl47_st0.0.30" edges=" 47 45 42 41 23 19 18 17 13 10 11 9" />
<vehicle depart="202" id="fl47_st0.0.30" route="route_fl47_st0.0.30" />
<route id="route_fl1_st0.0.36" edges=" 1 6 3 15" />
<vehicle depart="204" id="fl1_st0.0.36" route="route_fl1_st0.0.36" />
<route id="route_fl43_st0.0.11" edges=" 43 46" />
<vehicle depart="205" id="fl43_st0.0.11" route="route_fl43_st0.0.11" />
<route id="route_fl36_st0.0.25" edges=" 36 34 26 27 23 22" />
<vehicle depart="205" id="fl36_st0.0.25" route="route_fl36_st0.0.25" />
<route id="route_fl21_st0.0.31" edges=" 21 19 18 17 13 10 11 48" />
<vehicle depart="205" id="fl21_st0.0.31" route="route_fl21_st0.0.31" />
<route id="route_fl47_st0.0.31" edges=" 47 45 42 41 23 19 18 17 15" />
<vehicle depart="207" id="fl47_st0.0.31" route="route_fl47_st0.0.31" />
<route id="route_fl36_st0.0.26" edges=" 36 34 33" />
<vehicle depart="208" id="fl36_st0.0.26" route="route_fl36_st0.0.26" />
<route id="route_fl21_st0.0.32" edges=" 21 24 25 28 33" />
<vehicle depart="208" id="fl21_st0.0.32" route="route_fl21_st0.0.32" />
<route id="route_fl36_st0.0.27" edges=" 36 34 26 27 23 19 18 17 13 10 11 9" />
<vehicle depart="212" id="fl36_st0.0.27" route="route_fl36_st0.0.27" />
<route id="route_fl29_st0.0.6" edges=" 29 26 27 23 19 18 17 13 10 11 48" />