<?xml version="1.0" encoding="UTF-8"?>
<routes xmlns:xsi="http://www.w3.org/2001/XMLSchema-instance" xsi:noNamespaceSchemaLocation="http://sumo.dlr.de/xsd/routes_file.xsd">

<vType id="noVar" speedFactor="1.0" speedDev="0.0"/>
<route id="route_fl14_st0.0.0" edges="14 13 10 11 9" />
<vehicle type="noVar" depart="0" id="fl14_st0.0.0" route="route_fl14_st0.0.0" />
<route id="route_fl14_st0.0.1" edges="14 13 10 11 9" />
<vehicle type="noVar" depart="0" id="fl14_st0.0.1" route="route_fl14_st0.0.1" />
<route id="route_fl1_st0.0.0" edges="1 6 3 16 20 24 40 46" />
<vehicle type="noVar" depart="3" id="fl1_st0.0.0" route="route_fl1_st0.0.0" />
<route id="route_fl1_st0.0.1" edges="1 6 3 16 20 24 40 46" />
<vehicle type="noVar" depart="3" id="fl1_st0.0.1" route="route_fl1_st0.0.1" />
<route id="route_fl14_st0.0.2" edges="14 16 20 24 25 28 35" />
<vehicle type="noVar" depart="5" id="fl14_st0.0.2" route="route_fl14_st0.0.2" />
<route id="route_fl1_st0.0.2" edges="1 6 3 16 20 24 25 28 35" />
<vehicle type="noVar" depart="5" id="fl1_st0.0.2" route="route_fl1_st0.0.2" />
<route id="route_fl14_st0.0.3" edges="14 13 10 11 9" />
<vehicle type="noVar" depart="6" id="fl14_st0.0.3" route="route_fl14_st0.0.3" />
<route id="route_fl43_st0.0.0" edges="43 42 41 23 19 18 17 15" />
<vehicle type="noVar" depart="7" id="fl43_st0.0.0" route="route_fl43_st0.0.0" />
<route id="route_fl1_st0.0.3" edges="1 6 3 16 20 22" />
<vehicle type="noVar" depart="9" id="fl1_st0.0.3" route="route_fl1_st0.0.3" />
<route id="route_fl36_st0.0.0" edges="36 34 26 27 23 19 18 17 13 10 11 9" />
<vehicle type="noVar" depart="10" id="fl36_st0.0.0" route="route_fl36_st0.0.0" />
<route id="route_fl21_st0.0.0" edges="21 24 40 46" />
<vehicle type="noVar" depart="11" id="fl21_st0.0.0" route="route_fl21_st0.0.0" />
<route id="route_fl36_st0.0.1" edges="36 34 26 27 23 19 18 17 15" />
<vehicle type="noVar" depart="12" id="fl36_st0.0.1" route="route_fl36_st0.0.1" />
<route id="route_fl43_st0.0.1" edges="43 46" />
<vehicle type="noVar" depart="18" id="fl43_st0.0.1" route="route_fl43_st0.0.1" />
<route id="route_fl47_st0.0.0" edges="47 45 42 41 23 19 18 17 13 10 11 48" />
<vehicle type="noVar" depart="19" id="fl47_st0.0.0" route="route_fl47_st0.0.0" />
<route id="route_fl21_st0.0.1" edges="21 24 38" />
<vehicle type="noVar" depart="19" id="fl21_st0.0.1" route="route_fl21_st0.0.1" />
<route id="route_fl32_st0.0.0" edges="32 31 26 27 23 22" />
<vehicle type="noVar" depart="19" id="fl32_st0.0.0" route="route_fl32_st0.0.0" />
<route id="route_fl47_st0.0.1" edges="47 45 42 41 23 19 18 17 15" />
<vehicle type="noVar" depart="21" id="fl47_st0.0.1" route="route_fl47_st0.0.1" />
<route id="route_fl8_st0.0.0" edges="8 2 49 50" />
<vehicle type="noVar" depart="21" id="fl8_st0.0.0" route="route_fl8_st0.0.0" />
<route id="route_fl39_st0.0.0" edges="39 37 23 22" />
<vehicle type="noVar" depart="22" id="fl39_st0.0.0" route="route_fl39_st0.0.0" />
<route id="route_fl8_st0.0.1" edges="8 2 3 16 20 24 40 46" />
<vehicle type="noVar" depart="23" id="fl8_st0.0.1" route="route_fl8_st0.0.1" />
<route id="route_fl14_st0.0.4" edges="14 16 20 22" />
<vehicle type="noVar" depart="23" id="fl14_st0.0.4" route="route_fl14_st0.0.4" />
<route id="route_fl43_st0.0.2" edges="43 46" />
<vehicle type="noVar" depart="23" id="fl43_st0.0.2" route="route_fl43_st0.0.2" />
<route id="route_fl29_st0.0.0" edges="29 35" />
<vehicle type="noVar" depart="26" id="fl29_st0.0.0" route="route_fl29_st0.0.0" />
<route id="route_fl14_st0.0.5" edges="14 16 20 24 25 28 35" />
<vehicle type="noVar" depart="26" id="fl14_st0.0.5" route="route_fl14_st0.0.5" />
<route id="route_fl14_st0.0.6" edges="14 16 20 24 40 46" />
<vehicle type="noVar" depart="26" id="fl14_st0.0.6" route="route_fl14_st0.0.6" />
<route id="route_fl47_st0.0.2" edges="47 45 42 41 23 19 18 17 13 10 11 48" />
<vehicle type="noVar" depart="26" id="fl47_st0.0.2" route="route_fl47_st0.0.2" />
<route id="route_fl14_st0.0.7" edges="14 16 20 24 25 28 35" />
<vehicle type="noVar" depart="27" id="fl14_st0.0.7" route="route_fl14_st0.0.7" />
<route id="route_fl36_st0.0.2" edges="36 34 26 27 23 22" />
<vehicle type="noVar" depart="28" id="fl36_st0.0.2" route="route_fl36_st0.0.2" />
<route id="route_fl47_st0.0.3" edges="47 45 42 41 23 22" />
<vehicle type="noVar" depart="29" id="fl47_st0.0.3" route="route_fl47_st0.0.3" />
<route id="route_fl32_st0.0.1" edges="32 31 35" />
<vehicle type="noVar" depart="31" id="fl32_st0.0.1" route="route_fl32_st0.0.1" />
<route id="route_fl47_st0.0.4" edges="47 45 42 41 23 19 18 17 13 10 11 9" />
<vehicle type="noVar" depart="31" id="fl47_st0.0.4" route="route_fl47_st0.0.4" />
<route id="route_fl39_st0.0.1" edges="39 37 40 46" />
<vehicle type="noVar" depart="33" id="fl39_st0.0.1" route="route_fl39_st0.0.1" />
<route id="route_fl47_st0.0.5" edges="47 45 42 41 23 19 18 17 15" />
<vehicle type="noVar" depart="33" id="fl47_st0.0.5" route="route_fl47_st0.0.5" />
<route id="route_fl21_st0.0.2" edges="21 24 40 46" />
<vehicle type="noVar" depart="34" id="fl21_st0.0.2" route="route_fl21_st0.0.2" />
<route id="route_fl29_st0.0.1" edges="29 26 27 38" />
<vehicle type="noVar" depart="34" id="fl29_st0.0.1" route="route_fl29_st0.0.1" />
<route id="route_fl21_st0.0.3" edges="21 24 40 46" />
<vehicle type="noVar" depart="34" id="fl21_st0.0.3" route="route_fl21_st0.0.3" />
<route id="route_fl21_st0.0.4" edges="21 19 18 17 13 10 11 9" />
<vehicle type="noVar" depart="35" id="fl21_st0.0.4" route="route_fl21_st0.0.4" />
<route id="route_fl43_st0.0.3" edges="43 46" />
<vehicle type="noVar" depart="36" id="fl43_st0.0.3" route="route_fl43_st0.0.3" />
<route id="route_fl36_st0.0.3" edges="36 34 26 27 40 46" />
<vehicle type="noVar" depart="36" id="fl36_st0.0.3" route="route_fl36_st0.0.3" />
<route id="route_fl1_st0.0.4" edges="1 5 9" />
<vehicle type="noVar" depart="38" id="fl1_st0.0.4" route="route_fl1_st0.0.4" />
<route id="route_fl47_st0.0.6" edges="47 45 42 41 23 22" />
<vehicle type="noVar" depart="39" id="fl47_st0.0.6" route="route_fl47_st0.0.6" />
<route id="route_fl8_st0.0.2" edges="8 2 3 16 20 24 38" />
<vehicle type="noVar" depart="39" id="fl8_st0.0.2" route="route_fl8_st0.0.2" />
<route id="route_fl21_st0.0.5" edges="21 24 25 28 30" />
<vehicle type="noVar" depart="40" id="fl21_st0.0.5" route="route_fl21_st0.0.5" />
<route id="route_fl8_st0.0.3" edges="8 2 49 50" />
<vehicle type="noVar" depart="43" id="fl8_st0.0.3" route="route_fl8_st0.0.3" />
<route id="route_fl47_st0.0.7" edges="47 45 42 41 23 19 18 17 13 10 11 48" />
<vehicle type="noVar" depart="45" id="fl47_st0.0.7" route="route_fl47_st0.0.7" />
<route id="route_fl21_st0.0.6" edges="21 24 40 46" />
<vehicle type="noVar" depart="47" id="fl21_st0.0.6" route="route_fl21_st0.0.6" />
<route id="route_fl21_st0.0.7" edges="21 24 40 46" />
<vehicle type="noVar" depart="48" id="fl21_st0.0.7" route="route_fl21_st0.0.7" />
<route id="route_fl8_st0.0.4" edges="8 2 3 16 20 24 40 46" />
<vehicle type="noVar" depart="48" id="fl8_st0.0.4" route="route_fl8_st0.0.4" />
<route id="route_fl36_st0.0.4" edges="36 34 26 27 23 22" />
<vehicle type="noVar" depart="49" id="fl36_st0.0.4" route="route_fl36_st0.0.4" />
<route id="route_fl1_st0.0.5" edges="1 6 3 16 20 24 40 44" />
<vehicle type="noVar" depart="49" id="fl1_st0.0.5" route="route_fl1_st0.0.5" />
<route id="route_fl39_st0.0.2" edges="39 37 23 19 18 17 15" />
<vehicle type="noVar" depart="50" id="fl39_st0.0.2" route="route_fl39_st0.0.2" />
<route id="route_fl21_st0.0.8" edges="21 24 38" />
<vehicle type="noVar" depart="51" id="fl21_st0.0.8" route="route_fl21_st0.0.8" />
<route id="route_fl14_st0.0.8" edges="14 16 20 24 25 28 35" />
<vehicle type="noVar" depart="51" id="fl14_st0.0.8" route="route_fl14_st0.0.8" />
<route id="route_fl1_st0.0.6" edges="1 6 3 16 20 24 40 46" />
<vehicle type="noVar" depart="51" id="fl1_st0.0.6" route="route_fl1_st0.0.6" />
<route id="route_fl14_st0.0.9" edges="14 13 10 11 48" />
<vehicle type="noVar" depart="52" id="fl14_st0.0.9" route="route_fl14_st0.0.9" />
<route id="route_fl1_st0.0.7" edges="1 6 3 15" />
<vehicle type="noVar" depart="55" id="fl1_st0.0.7" route="route_fl1_st0.0.7" />
<route id="route_fl36_st0.0.5" edges="36 34 26 27 23 19 18 17 15" />
<vehicle type="noVar" depart="59" id="fl36_st0.0.5" route="route_fl36_st0.0.5" />
<route id="route_fl43_st0.0.4" edges="43 42 41 23 19 18 17 13 10 11 48" />
<vehicle type="noVar" depart="60" id="fl43_st0.0.4" route="route_fl43_st0.0.4" />
<route id="route_fl8_st0.0.5" edges="8 2 3 16 20 24 38" />
<vehicle type="noVar" depart="61" id="fl8_st0.0.5" route="route_fl8_st0.0.5" />
<route id="route_fl29_st0.0.2" edges="29 35" />
<vehicle type="noVar" depart="61" id="fl29_st0.0.2" route="route_fl29_st0.0.2" />
<route id="route_fl1_st0.0.8" edges="1 6 3 16 20 24 40 46" />
<vehicle type="noVar" depart="61" id="fl1_st0.0.8" route="route_fl1_st0.0.8" />
<route id="route_fl43_st0.0.5" edges="43 42 41 23 19 18 17 13 10 11 9" />
<vehicle type="noVar" depart="63" id="fl43_st0.0.5" route="route_fl43_st0.0.5" />
<route id="route_fl36_st0.0.6" edges="36 34 26 27 40 46" />
<vehicle type="noVar" depart="63" id="fl36_st0.0.6" route="route_fl36_st0.0.6" />
<route id="route_fl14_st0.0.10" edges="14 16 20 24 40 46" />
<vehicle type="noVar" depart="64" id="fl14_st0.0.10" route="route_fl14_st0.0.10" />
<route id="route_fl8_st0.0.6" edges="8 2 48" />
<vehicle type="noVar" depart="65" id="fl8_st0.0.6" route="route_fl8_st0.0.6" />
<route id="route_fl8_st0.0.7" edges="8 2 49 50" />
<vehicle type="noVar" depart="65" id="fl8_st0.0.7" route="route_fl8_st0.0.7" />
<route id="route_fl1_st0.0.9" edges="1 6 3 15" />
<vehicle type="noVar" depart="65" id="fl1_st0.0.9" route="route_fl1_st0.0.9" />
<route id="route_fl21_st0.0.9" edges="21 24 40 44" />
<vehicle type="noVar" depart="66" id="fl21_st0.0.9" route="route_fl21_st0.0.9" />
<route id="route_fl14_st0.0.11" edges="14 13 10 11 9" />
<vehicle type="noVar" depart="66" id="fl14_st0.0.11" route="route_fl14_st0.0.11" />
<route id="route_fl1_st0.0.10" edges="1 5 49 50" />
<vehicle type="noVar" depart="66" id="fl1_st0.0.10" route="route_fl1_st0.0.10" />
<route id="route_fl21_st0.0.10" edges="21 24 40 46" />
<vehicle type="noVar" depart="67" id="fl21_st0.0.10" route="route_fl21_st0.0.10" />
<route id="route_fl14_st0.0.12" edges="14 13 10 11 9" />
<vehicle type="noVar" depart="67" id="fl14_st0.0.12" route="route_fl14_st0.0.12" />
<route id="route_fl8_st0.0.8" edges="8 2 3 16 20 22" />
<vehicle type="noVar" depart="68" id="fl8_st0.0.8" route="route_fl8_st0.0.8" />
<route id="route_fl47_st0.0.8" edges="47 45 42 41 23 22" />
<vehicle type="noVar" depart="68" id="fl47_st0.0.8" route="route_fl47_st0.0.8" />
<route id="route_fl47_st0.0.9" edges="47 45 42 41 23 19 18 17 13 10 11 9" />
<vehicle type="noVar" depart="70" id="fl47_st0.0.9" route="route_fl47_st0.0.9" />
<route id="route_fl14_st0.0.13" edges="14 16 20 24 40 46" />
<vehicle type="noVar" depart="70" id="fl14_st0.0.13" route="route_fl14_st0.0.13" />
<route id="route_fl1_st0.0.11" edges="1 5 9" />
<vehicle type="noVar" depart="70" id="fl1_st0.0.11" route="route_fl1_st0.0.11" />
<route id="route_fl7_st0.0.0" edges="7 4 3 16 20 24 25 28 30" />
<vehicle type="noVar" depart="71" id="fl7_st0.0.0" route="route_fl7_st0.0.0" />
<route id="route_fl47_st0.0.10" edges="47 45 42 41 23 22" />
<vehicle type="noVar" depart="74" id="fl47_st0.0.10" route="route_fl47_st0.0.10" />
<route id="route_fl1_st0.0.12" edges="1 6 3 16 20 24 25 28 30" />
<vehicle type="noVar" depart="74" id="fl1_st0.0.12" route="route_fl1_st0.0.12" />
<route id="route_fl36_st0.0.7" edges="36 34 26 27 23 19 18 17 15" />
<vehicle type="noVar" depart="75" id="fl36_st0.0.7" route="route_fl36_st0.0.7" />
<route id="route_fl8_st0.0.9" edges="8 2 3 16 20 24 40 46" />
<vehicle type="noVar" depart="75" id="fl8_st0.0.9" route="route_fl8_st0.0.9" />
<route id="route_fl14_st0.0.14" edges="14 16 20 24 40 46" />
<vehicle type="noVar" depart="76" id="fl14_st0.0.14" route="route_fl14_st0.0.14" />
<route id="route_fl21_st0.0.11" edges="21 19 18 17 15" />
<vehicle type="noVar" depart="76" id="fl21_st0.0.11" route="route_fl21_st0.0.11" />
<route id="route_fl21_st0.0.12" edges="21 24 40 46" />
<vehicle type="noVar" depart="76" id="fl21_st0.0.12" route="route_fl21_st0.0.12" />
<route id="route_fl1_st0.0.13" edges="1 6 3 16 20 24 40 46" />
<vehicle type="noVar" depart="78" id="fl1_st0.0.13" route="route_fl1_st0.0.13" />
<route id="route_fl39_st0.0.3" edges="39 37 23 19 18 17 15" />
<vehicle type="noVar" depart="79" id="fl39_st0.0.3" route="route_fl39_st0.0.3" />
<route id="route_fl36_st0.0.8" edges="36 34 30" />
<vehicle type="noVar" depart="79" id="fl36_st0.0.8" route="route_fl36_st0.0.8" />
<route id="route_fl36_st0.0.9" edges="36 34 30" />
<vehicle type="noVar" depart="79" id="fl36_st0.0.9" route="route_fl36_st0.0.9" />
<route id="route_fl47_st0.0.11" edges="47 45 42 41 23 22" />
<vehicle type="noVar" depart="80" id="fl47_st0.0.11" route="route_fl47_st0.0.11" />
<route id="route_fl14_st0.0.15" edges="14 16 20 24 38" />
<vehicle type="noVar" depart="81" id="fl14_st0.0.15" route="route_fl14_st0.0.15" />
<route id="route_fl47_st0.0.12" edges="47 45 42 41 23 19 18 17 13 10 11 9" />
<vehicle type="noVar" depart="84" id="fl47_st0.0.12" route="route_fl47_st0.0.12" />
<route id="route_fl8_st0.0.10" edges="8 2 3 15" />
<vehicle type="noVar" depart="84" id="fl8_st0.0.10" route="route_fl8_st0.0.10" />
<route id="route_fl36_st0.0.10" edges="36 34 26 27 40 46" />
<vehicle type="noVar" depart="86" id="fl36_st0.0.10" route="route_fl36_st0.0.10" />
<route id="route_fl43_st0.0.6" edges="43 42 41 23 19 18 17 13 10 11 48" />
<vehicle type="noVar" depart="87" id="fl43_st0.0.6" route="route_fl43_st0.0.6" />
<route id="route_fl21_st0.0.13" edges="21 24 40 46" />
<vehicle type="noVar" depart="87" id="fl21_st0.0.13" route="route_fl21_st0.0.13" />
<route id="route_fl21_st0.0.14" edges="21 24 25 28 35" />
<vehicle type="noVar" depart="90" id="fl21_st0.0.14" route="route_fl21_st0.0.14" />
<route id="route_fl47_st0.0.13" edges="47 45 42 41 23 19 18 17 15" />
<vehicle type="noVar" depart="91" id="fl47_st0.0.13" route="route_fl47_st0.0.13" />
<route id="route_fl14_st0.0.16" edges="14 16 20 24 25 28 35" />
<vehicle type="noVar" depart="91" id="fl14_st0.0.16" route="route_fl14_st0.0.16" />
<route id="route_fl14_st0.0.17" edges="14 16 20 22" />
<vehicle type="noVar" depart="92" id="fl14_st0.0.17" route="route_fl14_st0.0.17" />
<route id="route_fl29_st0.0.3" edges="29 35" />
<vehicle type="noVar" depart="92" id="fl29_st0.0.3" route="route_fl29_st0.0.3" />
<route id="route_fl47_st0.0.14" edges="47 45 42 41 23 19 18 17 13 10 11 9" />
<vehicle type="noVar" depart="92" id="fl47_st0.0.14" route="route_fl47_st0.0.14" />
<route id="route_fl36_st0.0.11" edges="36 34 26 27 23 19 18 17 13 10 11 48" />
<vehicle type="noVar" depart="94" id="fl36_st0.0.11" route="route_fl36_st0.0.11" />
<route id="route_fl39_st0.0.4" edges="39 37 40 46" />
<vehicle type="noVar" depart="98" id="fl39_st0.0.4" route="route_fl39_st0.0.4" />
<route id="route_fl1_st0.0.14" edges="1 6 3 16 20 24 40 46" />
<vehicle type="noVar" depart="100" id="fl1_st0.0.14" route="route_fl1_st0.0.14" />
<route id="route_fl39_st0.0.5" edges="39 37 40 46" />
<vehicle type="noVar" depart="100" id="fl39_st0.0.5" route="route_fl39_st0.0.5" />
<route id="route_fl36_st0.0.12" edges="36 34 33" />
<vehicle type="noVar" depart="101" id="fl36_st0.0.12" route="route_fl36_st0.0.12" />
<route id="route_fl8_st0.0.11" edges="8 2 3 16 20 22" />
<vehicle type="noVar" depart="103" id="fl8_st0.0.11" route="route_fl8_st0.0.11" />
<route id="route_fl47_st0.0.15" edges="47 45 42 41 38" />
<vehicle type="noVar" depart="104" id="fl47_st0.0.15" route="route_fl47_st0.0.15" />
<route id="route_fl43_st0.0.7" edges="43 42 41 23 22" />
<vehicle type="noVar" depart="104" id="fl43_st0.0.7" route="route_fl43_st0.0.7" />
<route id="route_fl47_st0.0.16" edges="47 45 42 41 23 19 18 17 13 10 11 9" />
<vehicle type="noVar" depart="104" id="fl47_st0.0.16" route="route_fl47_st0.0.16" />
<route id="route_fl21_st0.0.15" edges="21 24 25 28 33" />
<vehicle type="noVar" depart="105" id="fl21_st0.0.15" route="route_fl21_st0.0.15" />
<route id="route_fl8_st0.0.12" edges="8 2 3 16 20 24 38" />
<vehicle type="noVar" depart="106" id="fl8_st0.0.12" route="route_fl8_st0.0.12" />
<route id="route_fl1_st0.0.15" edges="1 6 3 16 20 24 40 46" />
<vehicle type="noVar" depart="107" id="fl1_st0.0.15" route="route_fl1_st0.0.15" />
<route id="route_fl1_st0.0.16" edges="1 6 3 16 20 22" />
<vehicle type="noVar" depart="108" id="fl1_st0.0.16" route="route_fl1_st0.0.16" />
<route id="route_fl8_st0.0.13" edges="8 2 3 16 20 24 40 46" />
<vehicle type="noVar" depart="109" id="fl8_st0.0.13" route="route_fl8_st0.0.13" />
<route id="route_fl8_st0.0.14" edges="8 2 48" />
<vehicle type="noVar" depart="110" id="fl8_st0.0.14" route="route_fl8_st0.0.14" />
<route id="route_fl8_st0.0.15" edges="8 2 3 16 20 24 38" />
<vehicle type="noVar" depart="110" id="fl8_st0.0.15" route="route_fl8_st0.0.15" />
<route id="route_fl14_st0.0.18" edges="14 16 20 24 40 46" />
<vehicle type="noVar" depart="112" id="fl14_st0.0.18" route="route_fl14_st0.0.18" />
<route id="route_fl47_st0.0.17" edges="47 45 42 41 23 22" />
<vehicle type="noVar" depart="112" id="fl47_st0.0.17" route="route_fl47_st0.0.17" />
<route id="route_fl1_st0.0.17" edges="1 6 3 16 20 24 25 28 35" />
<vehicle type="noVar" depart="115" id="fl1_st0.0.17" route="route_fl1_st0.0.17" />
<route id="route_fl47_st0.0.18" edges="47 45 42 41 23 19 18 17 13 10 11 9" />
<vehicle type="noVar" depart="115" id="fl47_st0.0.18" route="route_fl47_st0.0.18" />
<route id="route_fl1_st0.0.18" edges="1 6 3 15" />
<vehicle type="noVar" depart="116" id="fl1_st0.0.18" route="route_fl1_st0.0.18" />
<route id="route_fl36_st0.0.13" edges="36 34 26 27 23 22" />
<vehicle type="noVar" depart="116" id="fl36_st0.0.13" route="route_fl36_st0.0.13" />
<route id="route_fl21_st0.0.16" edges="21 19 18 17 13 10 11 9" />
<vehicle type="noVar" depart="116" id="fl21_st0.0.16" route="route_fl21_st0.0.16" />
<route id="route_fl7_st0.0.1" edges="7 4 3 16 20 24 40 46" />
<vehicle type="noVar" depart="117" id="fl7_st0.0.1" route="route_fl7_st0.0.1" />
<route id="route_fl14_st0.0.19" edges="14 15" />
<vehicle type="noVar" depart="118" id="fl14_st0.0.19" route="route_fl14_st0.0.19" />
<route id="route_fl36_st0.0.14" edges="36 34 26 27 23 19 18 17 13 10 11 9" />
<vehicle type="noVar" depart="118" id="fl36_st0.0.14" route="route_fl36_st0.0.14" />
<route id="route_fl1_st0.0.19" edges="1 6 3 16 20 24 40 46" />
<vehicle type="noVar" depart="118" id="fl1_st0.0.19" route="route_fl1_st0.0.19" />
<route id="route_fl14_st0.0.20" edges="14 16 20 24 40 46" />
<vehicle type="noVar" depart="122" id="fl14_st0.0.20" route="route_fl14_st0.0.20" />
<route id="route_fl8_st0.0.16" edges="8 2 3 16 20 24 40 46" />
<vehicle type="noVar" depart="122" id="fl8_st0.0.16" route="route_fl8_st0.0.16" />
<route id="route_fl21_st0.0.17" edges="21 24 40 46" />
<vehicle type="noVar" depart="122" id="fl21_st0.0.17" route="route_fl21_st0.0.17" />
<route id="route_fl47_st0.0.19" edges="47 45 42 41 23 19 18 17 15" />
<vehicle type="noVar" depart="122" id="fl47_st0.0.19" route="route_fl47_st0.0.19" />
<route id="route_fl47_st0.0.20" edges="47 45 42 41 23 19 18 17 13 10 11 48" />
<vehicle type="noVar" depart="123" id="fl47_st0.0.20" route="route_fl47_st0.0.20" />
<route id="route_fl21_st0.0.18" edges="21 24 40 44" />
<vehicle type="noVar" depart="123" id="fl21_st0.0.18" route="route_fl21_st0.0.18" />
<route id="route_fl1_st0.0.20" edges="1 6 3 16 20 22" />
<vehicle type="noVar" depart="124" id="fl1_st0.0.20" route="route_fl1_st0.0.20" />
<route id="route_fl14_st0.0.21" edges="14 16 20 24 40 46" />
<vehicle type="noVar" depart="125" id="fl14_st0.0.21" route="route_fl14_st0.0.21" />
<route id="route_fl21_st0.0.19" edges="21 24 25 28 33" />
<vehicle type="noVar" depart="125" id="fl21_st0.0.19" route="route_fl21_st0.0.19" />
<route id="route_fl14_st0.0.22" edges="14 16 20 24 25 28 30" />
<vehicle type="noVar" depart="126" id="fl14_st0.0.22" route="route_fl14_st0.0.22" />
<route id="route_fl8_st0.0.17" edges="8 2 49 50" />
<vehicle type="noVar" depart="127" id="fl8_st0.0.17" route="route_fl8_st0.0.17" />
<route id="route_fl21_st0.0.20" edges="21 19 18 17 13 10 12 50" />
<vehicle type="noVar" depart="128" id="fl21_st0.0.20" route="route_fl21_st0.0.20" />
<route id="route_fl1_st0.0.21" edges="1 6 3 15" />
<vehicle type="noVar" depart="128" id="fl1_st0.0.21" route="route_fl1_st0.0.21" />
<route id="route_fl47_st0.0.21" edges="47 45 42 41 23 22" />
<vehicle type="noVar" depart="129" id="fl47_st0.0.21" route="route_fl47_st0.0.21" />
<route id="route_fl1_st0.0.22" edges="1 6 3 15" />
<vehicle type="noVar" depart="131" id="fl1_st0.0.22" route="route_fl1_st0.0.22" />
<route id="route_fl14_st0.0.23" edges="14 13 10 11 9" />
<vehicle type="noVar" depart="132" id="fl14_st0.0.23" route="route_fl14_st0.0.23" />
<route id="route_fl1_st0.0.23" edges="1 6 3 16 20 24 40 46" />
<vehicle type="noVar" depart="133" id="fl1_st0.0.23" route="route_fl1_st0.0.23" />
<route id="route_fl14_st0.0.24" edges="14 16 20 22" />
<vehicle type="noVar" depart="133" id="fl14_st0.0.24" route="route_fl14_st0.0.24" />
<route id="route_fl21_st0.0.21" edges="21 19 18 17 15" />
<vehicle type="noVar" depart="133" id="fl21_st0.0.21" route="route_fl21_st0.0.21" />
<route id="route_fl21_st0.0.22" edges="21 19 18 17 15" />
<vehicle type="noVar" depart="134" id="fl21_st0.0.22" route="route_fl21_st0.0.22" />
<route id="route_fl14_st0.0.25" edges="14 16 20 22" />
<vehicle type="noVar" depart="135" id="fl14_st0.0.25" route="route_fl14_st0.0.25" />
<route id="route_fl8_st0.0.18" edges="8 2 3 16 20 24 40 46" />
<vehicle type="noVar" depart="136" id="fl8_st0.0.18" route="route_fl8_st0.0.18" />
<route id="route_fl14_st0.0.26" edges="14 16 20 22" />
<vehicle type="noVar" depart="137" id="fl14_st0.0.26" route="route_fl14_st0.0.26" />
<route id="route_fl43_st0.0.8" edges="43 42 41 23 19 18 17 15" />
<vehicle type="noVar" depart="137" id="fl43_st0.0.8" route="route_fl43_st0.0.8" />
<route id="route_fl39_st0.0.6" edges="39 37 23 19 18 17 13 10 11 48" />
<vehicle type="noVar" depart="138" id="fl39_st0.0.6" route="route_fl39_st0.0.6" />
<route id="route_fl8_st0.0.19" edges="8 2 3 16 20 24 25 28 33" />
<vehicle type="noVar" depart="139" id="fl8_st0.0.19" route="route_fl8_st0.0.19" />
<route id="route_fl47_st0.0.22" edges="47 45 42 41 23 19 18 17 13 10 11 48" />
<vehicle type="noVar" depart="141" id="fl47_st0.0.22" route="route_fl47_st0.0.22" />
<route id="route_fl39_st0.0.7" edges="39 37 25 28 35" />
<vehicle type="noVar" depart="141" id="fl39_st0.0.7" route="route_fl39_st0.0.7" />
<route id="route_fl1_st0.0.24" edges="1 6 3 16 20 24 25 28 33" />
<vehicle type="noVar" depart="141" id="fl1_st0.0.24" route="route_fl1_st0.0.24" />
<route id="route_fl7_st0.0.2" edges="7 4 3 16 20 22" />
<vehicle type="noVar" depart="142" id="fl7_st0.0.2" route="route_fl7_st0.0.2" />
<route id="route_fl1_st0.0.25" edges="1 6 3 16 20 24 40 46" />
<vehicle type="noVar" depart="144" id="fl1_st0.0.25" route="route_fl1_st0.0.25" />
<route id="route_fl36_st0.0.15" edges="36 34 26 27 23 19 18 17 13 10 11 9" />
<vehicle type="noVar" depart="144" id="fl36_st0.0.15" route="route_fl36_st0.0.15" />
<route id="route_fl21_st0.0.23" edges="21 24 40 46" />
<vehicle type="noVar" depart="144" id="fl21_st0.0.23" route="route_fl21_st0.0.23" />
<route id="route_fl21_st0.0.24" edges="21 24 25 28 35" />
<vehicle type="noVar" depart="145" id="fl21_st0.0.24" route="route_fl21_st0.0.24" />
<route id="route_fl43_st0.0.9" edges="43 42 41 23 22" />
<vehicle type="noVar" depart="145" id="fl43_st0.0.9" route="route_fl43_st0.0.9" />
<route id="route_fl36_st0.0.16" edges="36 34 26 27 23 19 18 17 15" />
<vehicle type="noVar" depart="146" id="fl36_st0.0.16" route="route_fl36_st0.0.16" />
<route id="route_fl7_st0.0.3" edges="7 4 9" />
<vehicle type="noVar" depart="147" id="fl7_st0.0.3" route="route_fl7_st0.0.3" />
<route id="route_fl7_st0.0.4" edges="7 4 48" />
<vehicle type="noVar" depart="147" id="fl7_st0.0.4" route="route_fl7_st0.0.4" />
<route id="route_fl14_st0.0.27" edges="14 13 10 11 9" />
<vehicle type="noVar" depart="151" id="fl14_st0.0.27" route="route_fl14_st0.0.27" />
<route id="route_fl39_st0.0.8" edges="39 37 23 19 18 17 15" />
<vehicle type="noVar" depart="152" id="fl39_st0.0.8" route="route_fl39_st0.0.8" />
<route id="route_fl29_st0.0.4" edges="29 26 27 23 19 18 17 13 10 11 9" />
<vehicle type="noVar" depart="153" id="fl29_st0.0.4" route="route_fl29_st0.0.4" />
<route id="route_fl36_st0.0.17" edges="36 34 26 27 40 46" />
<vehicle type="noVar" depart="155" id="fl36_st0.0.17" route="route_fl36_st0.0.17" />
<route id="route_fl36_st0.0.18" edges="36 34 26 27 23 22" />
<vehicle type="noVar" depart="156" id="fl36_st0.0.18" route="route_fl36_st0.0.18" />
<route id="route_fl1_st0.0.26" edges="1 6 3 16 20 24 40 46" />
<vehicle type="noVar" depart="157" id="fl1_st0.0.26" route="route_fl1_st0.0.26" />
<route id="route_fl39_st0.0.9" edges="39 37 40 46" />
<vehicle type="noVar" depart="157" id="fl39_st0.0.9" route="route_fl39_st0.0.9" />
<route id="route_fl32_st0.0.2" edges="32 31 35" />
<vehicle type="noVar" depart="157" id="fl32_st0.0.2" route="route_fl32_st0.0.2" />
<route id="route_fl36_st0.0.19" edges="36 34 26 27 23 19 18 17 15" />
<vehicle type="noVar" depart="158" id="fl36_st0.0.19" route="route_fl36_st0.0.19" />
<route id="route_fl1_st0.0.27" edges="1 6 3 16 20 24 40 46" />
<vehicle type="noVar" depart="158" id="fl1_st0.0.27" route="route_fl1_st0.0.27" />
<route id="route_fl39_st0.0.10" edges="39 37 25 28 35" />
<vehicle type="noVar" depart="160" id="fl39_st0.0.10" route="route_fl39_st0.0.10" />
<route id="route_fl47_st0.0.23" edges="47 45 42 41 23 19 18 17 15" />
<vehicle type="noVar" depart="160" id="fl47_st0.0.23" route="route_fl47_st0.0.23" />
<route id="route_fl14_st0.0.28" edges="14 13 10 11 9" />
<vehicle type="noVar" depart="160" id="fl14_st0.0.28" route="route_fl14_st0.0.28" />
<route id="route_fl21_st0.0.25" edges="21 22" />
<vehicle type="noVar" depart="163" id="fl21_st0.0.25" route="route_fl21_st0.0.25" />
<route id="route_fl14_st0.0.29" edges="14 16 20 24 40 46" />
<vehicle type="noVar" depart="163" id="fl14_st0.0.29" route="route_fl14_st0.0.29" />
<route id="route_fl39_st0.0.11" edges="39 37 23 19 18 17 15" />
<vehicle type="noVar" depart="164" id="fl39_st0.0.11" route="route_fl39_st0.0.11" />
<route id="route_fl36_st0.0.20" edges="36 34 26 27 23 19 18 17 13 10 11 9" />
<vehicle type="noVar" depart="165" id="fl36_st0.0.20" route="route_fl36_st0.0.20" />
<route id="route_fl21_st0.0.26" edges="21 24 25 28 35" />
<vehicle type="noVar" depart="166" id="fl21_st0.0.26" route="route_fl21_st0.0.26" />
<route id="route_fl29_st0.0.5" edges="29 26 27 23 19 18 17 15" />
<vehicle type="noVar" depart="170" id="fl29_st0.0.5" route="route_fl29_st0.0.5" />
<route id="route_fl47_st0.0.24" edges="47 45 42 41 23 19 18 17 13 10 11 9" />
<vehicle type="noVar" depart="174" id="fl47_st0.0.24" route="route_fl47_st0.0.24" />
<route id="route_fl36_st0.0.21" edges="36 34 26 27 23 19 18 17 15" />
<vehicle type="noVar" depart="175" id="fl36_st0.0.21" route="route_fl36_st0.0.21" />
<route id="route_fl39_st0.0.12" edges="39 37 23 19 18 17 15" />
<vehicle type="noVar" depart="176" id="fl39_st0.0.12" route="route_fl39_st0.0.12" />
<route id="route_fl1_st0.0.28" edges="1 6 3 16 20 24 40 46" />
<vehicle type="noVar" depart="176" id="fl1_st0.0.28" route="route_fl1_st0.0.28" />
<route id="route_fl8_st0.0.20" edges="8 2 3 16 20 24 25 28 35" />
<vehicle type="noVar" depart="177" id="fl8_st0.0.20" route="route_fl8_st0.0.20" />
<route id="route_fl1_st0.0.29" edges="1 6 3 15" />
<vehicle type="noVar" depart="178" id="fl1_st0.0.29" route="route_fl1_st0.0.29" />
<route id="route_fl21_st0.0.27" edges="21 24 40 46" />
<vehicle type="noVar" depart="179" id="fl21_st0.0.27" route="route_fl21_st0.0.27" />
<route id="route_fl47_st0.0.25" edges="47 45 42 41 23 19 18 17 15" />
<vehicle type="noVar" depart="179" id="fl47_st0.0.25" route="route_fl47_st0.0.25" />
<route id="route_fl21_st0.0.28" edges="21 24 25 28 35" />
<vehicle type="noVar" depart="180" id="fl21_st0.0.28" route="route_fl21_st0.0.28" />
<route id="route_fl47_st0.0.26" edges="47 45 42 41 23 22" />
<vehicle type="noVar" depart="181" id="fl47_st0.0.26" route="route_fl47_st0.0.26" />
<route id="route_fl1_st0.0.30" edges="1 6 3 16 20 24 40 46" />
<vehicle type="noVar" depart="183" id="fl1_st0.0.30" route="route_fl1_st0.0.30" />
<route id="route_fl8_st0.0.21" edges="8 2 3 16 20 24 25 28 35" />
<vehicle type="noVar" depart="184" id="fl8_st0.0.21" route="route_fl8_st0.0.21" />
<route id="route_fl7_st0.0.5" edges="7 4 9" />
<vehicle type="noVar" depart="184" id="fl7_st0.0.5" route="route_fl7_st0.0.5" />
<route id="route_fl21_st0.0.29" edges="21 19 18 17 15" />
<vehicle type="noVar" depart="186" id="fl21_st0.0.29" route="route_fl21_st0.0.29" />
<route id="route_fl14_st0.0.30" edges="14 16 20 24 40 46" />
<vehicle type="noVar" depart="187" id="fl14_st0.0.30" route="route_fl14_st0.0.30" />
<route id="route_fl1_st0.0.31" edges="1 6 3 16 20 24 40 46" />
<vehicle type="noVar" depart="187" id="fl1_st0.0.31" route="route_fl1_st0.0.31" />
<route id="route_fl21_st0.0.30" edges="21 24 25 28 35" />
<vehicle type="noVar" depart="188" id="fl21_st0.0.30" route="route_fl21_st0.0.30" />
<route id="route_fl47_st0.0.27" edges="47 45 42 41 23 19 18 17 13 10 11 48" />
<vehicle type="noVar" depart="188" id="fl47_st0.0.27" route="route_fl47_st0.0.27" />
<route id="route_fl1_st0.0.32" edges="1 6 3 16 20 24 40 46" />
<vehicle type="noVar" depart="189" id="fl1_st0.0.32" route="route_fl1_st0.0.32" />
<route id="route_fl47_st0.0.28" edges="47 45 42 41 23 19 18 17 15" />
<vehicle type="noVar" depart="190" id="fl47_st0.0.28" route="route_fl47_st0.0.28" />
<route id="route_fl47_st0.0.29" edges="47 45 42 41 23 19 18 17 15" />
<vehicle type="noVar" depart="190" id="fl47_st0.0.29" route="route_fl47_st0.0.29" />