<?xml version="1.0" encoding="UTF-8"?>
<configuration xmlns:xsi="http://www.w3.org/2001/XMLSchema-instance" xsi:noNamespaceSchemaLocation="http://sumo.dlr.de/xsd/sumoConfiguration.xsd">
<input>
<net-file value="marshall_tls2.net.xml"/>
<route-files value="marshall42_auto_test.rou.xml"/>
</input>
</configuration>
