<?xml version="1.0" encoding="UTF-8"?>

<!-- generated on 2024-07-05 12:42:00 by Eclipse SUMO netedit Version 1.18.0
<configuration xmlns:xsi="http://www.w3.org/2001/XMLSchema-instance" xsi:noNamespaceSchemaLocation="http://sumo.dlr.de/xsd/neteditConfiguration.xsd">

    <input>
        <sumo-net-file value="/Users/davidneiman/Documents/GitHub.nosync/traffic-routing/surtrac_test/pittsburghsmaller2lmergegrant.net.xml"/>
    </input>

    <output>
        <output-file value="/Users/davidneiman/Documents/GitHub.nosync/traffic-routing/surtrac_test/pittsburghsmaller2lmergegrant.net.xml"/>
        <output.street-names value="true"/>
    </output>

    <processing>
        <geometry.min-radius.fix.railways value="false"/>
        <geometry.max-grade.fix value="false"/>
        <offset.disable-normalization value="true"/>
        <lefthand value="0"/>
    </processing>

    <junctions>
        <no-turnarounds value="true"/>
        <junctions.corner-detail value="5"/>
        <junctions.limit-turn-speed value="5.50"/>
        <rectangular-lane-cut value="0"/>
    </junctions>

    <pedestrian>
        <walkingareas value="0"/>
    </pedestrian>

</configuration>
-->

<net version="1.16" junctionCornerDetail="5" limitTurnSpeed="5.50" xmlns:xsi="http://www.w3.org/2001/XMLSchema-instance" xsi:noNamespaceSchemaLocation="http://sumo.dlr.de/xsd/net_file.xsd">

    <location netOffset="-584408.72,-4476613.85" convBoundary="481.98,196.10,889.88,660.08" origBoundary="-80.004731,40.435799,-79.988268,40.445849" projParameter="+proj=utm +zone=17 +ellps=WGS84 +datum=WGS84 +units=m +no_defs"/>

    <type id="highway.primary" priority="12" numLanes="2" speed="27.78" disallow="tram rail_urban rail rail_electric rail_fast ship" oneway="0"/>
    <type id="highway.residential" priority="3" numLanes="1" speed="13.89" disallow="tram rail_urban rail rail_electric rail_fast ship" oneway="0"/>
    <type id="highway.secondary" priority="11" numLanes="1" speed="27.78" disallow="tram rail_urban rail rail_electric rail_fast ship" oneway="0"/>
    <type id="highway.tertiary" priority="10" numLanes="1" speed="22.22" disallow="tram rail_urban rail rail_electric rail_fast ship" oneway="0"/>

    <edge id=":4459167069_0" function="internal">
        <lane id=":4459167069_0_0" index="0" disallow="tram rail_urban rail rail_electric rail_fast ship" speed="27.78" length="8.40" shape="726.83,373.37 724.82,374.88 723.90,376.53 722.98,378.18 720.97,379.69"/>
        <lane id=":4459167069_0_1" index="1" disallow="tram rail_urban rail rail_electric rail_fast ship" speed="27.78" length="8.40" shape="726.83,373.37 719.60,376.80"/>
    </edge>
    <edge id=":4459167069_2" function="internal">
        <lane id=":4459167069_2_0" index="0" disallow="tram rail_urban rail rail_electric rail_fast ship" speed="27.78" length="8.80" shape="716.86,371.01 719.30,370.41 721.16,370.75 723.02,371.08 725.46,370.48"/>
    </edge>
    <edge id=":cluster_104472649_1362263119_684800917_8484285016_8484318434_8486322131_8486322133_0" function="internal">
        <lane id=":cluster_104472649_1362263119_684800917_8484285016_8484318434_8486322131_8486322133_0_0" index="0" disallow="tram rail_urban rail rail_electric rail_fast ship" speed="6.41" length="9.04" shape="835.47,524.64 834.24,522.47 832.62,521.25 830.61,520.98 828.21,521.66"/>
    </edge>
    <edge id=":cluster_104472649_1362263119_684800917_8484285016_8484318434_8486322131_8486322133_1" function="internal">
        <lane id=":cluster_104472649_1362263119_684800917_8484285016_8484318434_8486322131_8486322133_1_0" index="0" disallow="tram rail_urban rail rail_electric rail_fast ship" speed="20.84" length="25.16" shape="835.47,524.64 833.14,517.21 832.20,511.55 831.42,506.34 829.56,500.26"/>
        <lane id=":cluster_104472649_1362263119_684800917_8484285016_8484318434_8486322131_8486322133_1_1" index="1" disallow="tram rail_urban rail rail_electric rail_fast ship" speed="20.84" length="25.16" shape="838.45,523.47 836.11,516.03 835.17,510.36 834.39,505.15 832.53,499.07"/>
    </edge>
    <edge id=":cluster_104472649_1362263119_684800917_8484285016_8484318434_8486322131_8486322133_3" function="internal">
        <lane id=":cluster_104472649_1362263119_684800917_8484285016_8484318434_8486322131_8486322133_3_0" index="0" disallow="tram rail_urban rail rail_electric rail_fast ship" speed="9.74" length="5.33" shape="841.43,522.30 840.20,517.11"/>
    </edge>
    <edge id=":cluster_104472649_1362263119_684800917_8484285016_8484318434_8486322131_8486322133_17" function="internal">
        <lane id=":cluster_104472649_1362263119_684800917_8484285016_8484318434_8486322131_8486322133_17_0" index="0" disallow="tram rail_urban rail rail_electric rail_fast ship" speed="9.74" length="15.58" shape="840.20,517.11 840.12,516.77 840.87,512.08 843.68,508.24 848.54,505.23"/>
    </edge>
    <edge id=":cluster_104472649_1362263119_684800917_8484285016_8484318434_8486322131_8486322133_4" function="internal">
        <lane id=":cluster_104472649_1362263119_684800917_8484285016_8484318434_8486322131_8486322133_4_0" index="0" disallow="tram rail_urban rail rail_electric rail_fast ship" speed="7.24" length="11.08" shape="851.34,510.99 848.70,512.60 847.16,514.63 846.72,517.08 847.38,519.95"/>
    </edge>
    <edge id=":cluster_104472649_1362263119_684800917_8484285016_8484318434_8486322131_8486322133_5" function="internal">
        <lane id=":cluster_104472649_1362263119_684800917_8484285016_8484318434_8486322131_8486322133_5_0" index="0" disallow="tram rail_urban rail rail_electric rail_fast ship" speed="27.78" length="25.41" shape="851.34,510.99 828.21,521.66"/>
        <lane id=":cluster_104472649_1362263119_684800917_8484285016_8484318434_8486322131_8486322133_5_1" index="1" disallow="tram rail_urban rail rail_electric rail_fast ship" speed="27.78" length="25.41" shape="849.94,508.11 826.91,518.74"/>
    </edge>
    <edge id=":cluster_104472649_1362263119_684800917_8484285016_8484318434_8486322131_8486322133_7" function="internal">
        <lane id=":cluster_104472649_1362263119_684800917_8484285016_8484318434_8486322131_8486322133_7_0" index="0" disallow="tram rail_urban rail rail_electric rail_fast ship" speed="9.83" length="3.80" shape="849.94,508.11 846.25,509.03"/>
    </edge>
    <edge id=":cluster_104472649_1362263119_684800917_8484285016_8484318434_8486322131_8486322133_18" function="internal">
        <lane id=":cluster_104472649_1362263119_684800917_8484285016_8484318434_8486322131_8486322133_18_0" index="0" disallow="tram rail_urban rail rail_electric rail_fast ship" speed="9.83" length="18.66" shape="846.25,509.03 844.47,509.47 839.74,508.41 835.76,504.95 832.53,499.07"/>
    </edge>
    <edge id=":cluster_104472649_1362263119_684800917_8484285016_8484318434_8486322131_8486322133_8" function="internal">
        <lane id=":cluster_104472649_1362263119_684800917_8484285016_8484318434_8486322131_8486322133_8_0" index="0" disallow="tram rail_urban rail rail_electric rail_fast ship" speed="6.36" length="9.04" shape="838.47,496.67 839.72,498.83 841.36,500.02 843.36,500.24 845.74,499.47"/>
    </edge>
    <edge id=":cluster_104472649_1362263119_684800917_8484285016_8484318434_8486322131_8486322133_9" function="internal">
        <lane id=":cluster_104472649_1362263119_684800917_8484285016_8484318434_8486322131_8486322133_9_0" index="0" disallow="tram rail_urban rail rail_electric rail_fast ship" speed="20.84" length="24.92" shape="838.47,496.67 847.38,519.95"/>
        <lane id=":cluster_104472649_1362263119_684800917_8484285016_8484318434_8486322131_8486322133_9_1" index="1" disallow="tram rail_urban rail rail_electric rail_fast ship" speed="20.84" length="24.92" shape="835.50,497.87 844.41,521.12"/>
    </edge>
    <edge id=":cluster_104472649_1362263119_684800917_8484285016_8484318434_8486322131_8486322133_11" function="internal">
        <lane id=":cluster_104472649_1362263119_684800917_8484285016_8484318434_8486322131_8486322133_11_0" index="0" disallow="tram rail_urban rail rail_electric rail_fast ship" speed="10.71" length="7.75" shape="835.50,497.87 837.15,504.59 837.02,505.41"/>
    </edge>
    <edge id=":cluster_104472649_1362263119_684800917_8484285016_8484318434_8486322131_8486322133_19" function="internal">
        <lane id=":cluster_104472649_1362263119_684800917_8484285016_8484318434_8486322131_8486322133_19_0" index="0" disallow="tram rail_urban rail rail_electric rail_fast ship" speed="10.71" length="17.79" shape="837.02,505.41 836.27,510.31 832.86,515.03 826.91,518.74"/>
    </edge>
    <edge id=":cluster_104472649_1362263119_684800917_8484285016_8484318434_8486322131_8486322133_12" function="internal">
        <lane id=":cluster_104472649_1362263119_684800917_8484285016_8484318434_8486322131_8486322133_12_0" index="0" disallow="tram rail_urban rail rail_electric rail_fast ship" speed="7.80" length="13.08" shape="823.01,509.97 826.75,507.88 829.09,505.57 830.03,503.03 829.56,500.26"/>
    </edge>
    <edge id=":cluster_104472649_1362263119_684800917_8484285016_8484318434_8486322131_8486322133_13" function="internal">
        <lane id=":cluster_104472649_1362263119_684800917_8484285016_8484318434_8486322131_8486322133_13_0" index="0" disallow="tram rail_urban rail rail_electric rail_fast ship" speed="27.78" length="25.15" shape="823.01,509.97 845.74,499.47"/>
        <lane id=":cluster_104472649_1362263119_684800917_8484285016_8484318434_8486322131_8486322133_13_1" index="1" disallow="tram rail_urban rail rail_electric rail_fast ship" speed="27.78" length="25.15" shape="824.31,512.89 847.14,502.35"/>
        <lane id=":cluster_104472649_1362263119_684800917_8484285016_8484318434_8486322131_8486322133_13_2" index="2" disallow="tram rail_urban rail rail_electric rail_fast ship" speed="27.78" length="25.15" shape="825.61,515.82 848.54,505.23"/>
    </edge>
    <edge id=":cluster_104472649_1362263119_684800917_8484285016_8484318434_8486322131_8486322133_16" function="internal">
        <lane id=":cluster_104472649_1362263119_684800917_8484285016_8484318434_8486322131_8486322133_16_0" index="0" disallow="tram rail_urban rail rail_electric rail_fast ship" speed="9.77" length="5.52" shape="825.61,515.82 830.88,514.17"/>
    </edge>
    <edge id=":cluster_104472649_1362263119_684800917_8484285016_8484318434_8486322131_8486322133_20" function="internal">
        <lane id=":cluster_104472649_1362263119_684800917_8484285016_8484318434_8486322131_8486322133_20_0" index="0" disallow="tram rail_urban rail rail_electric rail_fast ship" speed="9.77" length="16.89" shape="830.88,514.17 832.12,513.78 837.42,513.98 841.52,516.43 844.41,521.12"/>
    </edge>
    <edge id=":cluster_104572636_8484443882_8484452939_8484452945_8484452946_0" function="internal">
        <lane id=":cluster_104572636_8484443882_8484452939_8484452945_8484452946_0_0" index="0" disallow="tram rail_urban rail rail_electric rail_fast ship" speed="7.31" length="11.20" shape="679.85,594.35 678.22,592.39 676.03,591.47 673.28,591.60 669.96,592.78"/>
    </edge>
    <edge id=":cluster_104572636_8484443882_8484452939_8484452945_8484452946_1" function="internal">
        <lane id=":cluster_104572636_8484443882_8484452939_8484452945_8484452946_1_0" index="0" disallow="tram rail_urban rail rail_electric rail_fast ship" speed="13.89" length="20.99" shape="679.85,594.35 669.76,575.95"/>
    </edge>
    <edge id=":cluster_104572636_8484443882_8484452939_8484452945_8484452946_2" function="internal">
        <lane id=":cluster_104572636_8484443882_8484452939_8484452945_8484452946_2_0" index="0" disallow="tram rail_urban rail rail_electric rail_fast ship" speed="8.02" length="14.70" shape="679.85,594.35 677.67,589.55 676.88,585.74 677.46,582.93 679.43,581.13"/>
    </edge>
    <edge id=":cluster_104572636_8484443882_8484452939_8484452945_8484452946_3" function="internal">
        <lane id=":cluster_104572636_8484443882_8484452939_8484452945_8484452946_3_0" index="0" disallow="tram rail_urban rail rail_electric rail_fast ship" speed="22.22" length="13.60" shape="682.24,586.88 669.96,592.78"/>
        <lane id=":cluster_104572636_8484443882_8484452939_8484452945_8484452946_3_1" index="1" disallow="tram rail_urban rail rail_electric rail_fast ship" speed="22.22" length="13.60" shape="680.84,584.00 668.59,589.89"/>
    </edge>
    <edge id=":cluster_104572636_8484443882_8484452939_8484452945_8484452946_5" function="internal">
        <lane id=":cluster_104572636_8484443882_8484452939_8484452945_8484452946_5_0" index="0" disallow="tram rail_urban rail rail_electric rail_fast ship" speed="8.36" length="2.50" shape="680.84,584.00 678.38,584.42"/>
    </edge>
    <edge id=":cluster_104572636_8484443882_8484452939_8484452945_8484452946_9" function="internal">
        <lane id=":cluster_104572636_8484443882_8484452939_8484452945_8484452946_9_0" index="0" disallow="tram rail_urban rail rail_electric rail_fast ship" speed="8.36" length="12.47" shape="678.38,584.42 678.20,584.45 675.48,583.26 672.67,580.42 669.76,575.95"/>
    </edge>
    <edge id=":cluster_104572636_8484443882_8484452939_8484452945_8484452946_6" function="internal">
        <lane id=":cluster_104572636_8484443882_8484452939_8484452945_8484452946_6_0" index="0" disallow="tram rail_urban rail rail_electric rail_fast ship" speed="6.78" length="10.41" shape="665.86,584.10 668.61,582.41 670.18,580.48 670.56,578.33 669.76,575.95"/>
    </edge>
    <edge id=":cluster_104572636_8484443882_8484452939_8484452945_8484452946_7" function="internal">
        <lane id=":cluster_104572636_8484443882_8484452939_8484452945_8484452946_7_0" index="0" disallow="tram rail_urban rail rail_electric rail_fast ship" speed="22.22" length="13.51" shape="665.86,584.10 678.02,578.26"/>
        <lane id=":cluster_104572636_8484443882_8484452939_8484452945_8484452946_7_1" index="1" disallow="tram rail_urban rail rail_electric rail_fast ship" speed="22.22" length="13.51" shape="667.23,586.99 679.43,581.13"/>
    </edge>
    <edge id=":cluster_104572642_4599846707_8484284983_8484443873_8484443874_8484443879_8484443880_8484443881_0" function="internal">
        <lane id=":cluster_104572642_4599846707_8484284983_8484443873_8484443874_8484443879_8484443880_8484443881_0_0" index="0" disallow="tram rail_urban rail rail_electric rail_fast ship" speed="6.41" length="9.04" shape="748.18,560.93 746.88,558.81 745.22,557.65 743.20,557.45 740.83,558.21"/>
    </edge>
    <edge id=":cluster_104572642_4599846707_8484284983_8484443873_8484443874_8484443879_8484443880_8484443881_1" function="internal">
        <lane id=":cluster_104572642_4599846707_8484284983_8484443873_8484443874_8484443879_8484443880_8484443881_1_0" index="0" speed="13.89" length="23.60" shape="748.18,560.93 737.95,539.80"/>
        <lane id=":cluster_104572642_4599846707_8484284983_8484443873_8484443874_8484443879_8484443880_8484443881_1_1" index="1" speed="13.89" length="23.60" shape="751.12,559.66 740.79,538.31"/>
    </edge>
    <edge id=":cluster_104572642_4599846707_8484284983_8484443873_8484443874_8484443879_8484443880_8484443881_3" function="internal">
        <lane id=":cluster_104572642_4599846707_8484284983_8484443873_8484443874_8484443879_8484443880_8484443881_3_0" index="0" disallow="tram rail_urban rail rail_electric rail_fast ship" speed="9.31" length="3.87" shape="751.12,559.66 750.10,555.93"/>
    </edge>
    <edge id=":cluster_104572642_4599846707_8484284983_8484443873_8484443874_8484443879_8484443880_8484443881_17" function="internal">
        <lane id=":cluster_104572642_4599846707_8484284983_8484443873_8484443874_8484443879_8484443880_8484443881_17_0" index="0" disallow="tram rail_urban rail rail_electric rail_fast ship" speed="9.31" length="16.18" shape="750.10,555.93 749.67,554.34 750.31,549.88 753.02,546.28 757.82,543.55"/>
    </edge>
    <edge id=":cluster_104572642_4599846707_8484284983_8484443873_8484443874_8484443879_8484443880_8484443881_4" function="internal">
        <lane id=":cluster_104572642_4599846707_8484284983_8484443873_8484443874_8484443879_8484443880_8484443881_4_0" index="0" disallow="tram rail_urban rail rail_electric rail_fast ship" speed="6.58" length="9.48" shape="760.17,549.51 757.90,550.80 756.61,552.50 756.31,554.61 756.99,557.12"/>
    </edge>
    <edge id=":cluster_104572642_4599846707_8484284983_8484443873_8484443874_8484443879_8484443880_8484443881_5" function="internal">
        <lane id=":cluster_104572642_4599846707_8484284983_8484443873_8484443874_8484443879_8484443880_8484443881_5_0" index="0" disallow="tram rail_urban rail rail_electric rail_fast ship" speed="25.00" length="21.33" shape="760.17,549.51 740.83,558.21"/>
        <lane id=":cluster_104572642_4599846707_8484284983_8484443873_8484443874_8484443879_8484443880_8484443881_5_1" index="1" disallow="tram rail_urban rail rail_electric rail_fast ship" speed="25.00" length="21.33" shape="759.00,546.53 739.43,555.33"/>
    </edge>
    <edge id=":cluster_104572642_4599846707_8484284983_8484443873_8484443874_8484443879_8484443880_8484443881_7" function="internal">
        <lane id=":cluster_104572642_4599846707_8484284983_8484443873_8484443874_8484443879_8484443880_8484443881_7_0" index="0" disallow="tram rail_urban rail rail_electric rail_fast ship" speed="10.31" length="3.46" shape="759.00,546.53 755.61,547.27"/>
    </edge>
    <edge id=":cluster_104572642_4599846707_8484284983_8484443873_8484443874_8484443879_8484443880_8484443881_18" function="internal">
        <lane id=":cluster_104572642_4599846707_8484284983_8484443873_8484443874_8484443879_8484443880_8484443881_18_0" index="0" disallow="tram rail_urban rail rail_electric rail_fast ship" speed="10.31" length="18.79" shape="755.61,547.27 753.54,547.72 748.68,546.75 744.43,543.61 740.79,538.31"/>
    </edge>
    <edge id=":cluster_104572642_4599846707_8484284983_8484443873_8484443874_8484443879_8484443880_8484443881_8" function="internal">
        <lane id=":cluster_104572642_4599846707_8484284983_8484443873_8484443874_8484443879_8484443880_8484443881_8_0" index="0" disallow="tram rail_urban rail rail_electric rail_fast ship" speed="7.19" length="10.33" shape="746.46,535.34 747.97,537.29 749.97,538.31 752.48,538.42 755.48,537.60"/>
    </edge>
    <edge id=":cluster_104572642_4599846707_8484284983_8484443873_8484443874_8484443879_8484443880_8484443881_9" function="internal">
        <lane id=":cluster_104572642_4599846707_8484284983_8484443873_8484443874_8484443879_8484443880_8484443881_9_0" index="0" speed="13.89" length="24.08" shape="746.46,535.34 756.99,557.12"/>
        <lane id=":cluster_104572642_4599846707_8484284983_8484443873_8484443874_8484443879_8484443880_8484443881_9_1" index="1" speed="13.89" length="24.08" shape="743.62,536.83 754.06,558.39"/>
    </edge>
    <edge id=":cluster_104572642_4599846707_8484284983_8484443873_8484443874_8484443879_8484443880_8484443881_11" function="internal">
        <lane id=":cluster_104572642_4599846707_8484284983_8484443873_8484443874_8484443879_8484443880_8484443881_11_0" index="0" disallow="tram rail_urban rail rail_electric rail_fast ship" speed="9.68" length="6.71" shape="743.62,536.83 745.94,542.90 745.94,543.11"/>
    </edge>
    <edge id=":cluster_104572642_4599846707_8484284983_8484443873_8484443874_8484443879_8484443880_8484443881_19" function="internal">
        <lane id=":cluster_104572642_4599846707_8484284983_8484443873_8484443874_8484443879_8484443880_8484443881_19_0" index="0" disallow="tram rail_urban rail rail_electric rail_fast ship" speed="9.68" length="15.02" shape="745.94,543.11 746.01,548.01 743.84,552.16 739.43,555.33"/>
    </edge>
    <edge id=":cluster_104572642_4599846707_8484284983_8484443873_8484443874_8484443879_8484443880_8484443881_12" function="internal">
        <lane id=":cluster_104572642_4599846707_8484284983_8484443873_8484443874_8484443879_8484443880_8484443881_12_0" index="0" disallow="tram rail_urban rail rail_electric rail_fast ship" speed="7.11" length="11.22" shape="736.63,549.58 738.64,548.03 739.53,545.88 739.30,543.14 737.95,539.80"/>
    </edge>
    <edge id=":cluster_104572642_4599846707_8484284983_8484443873_8484443874_8484443879_8484443880_8484443881_13" function="internal">
        <lane id=":cluster_104572642_4599846707_8484284983_8484443873_8484443874_8484443879_8484443880_8484443881_13_0" index="0" disallow="tram rail_urban rail rail_electric rail_fast ship" speed="25.00" length="22.10" shape="736.63,549.58 741.90,546.44 745.53,543.48 749.41,540.58 755.48,537.60"/>
        <lane id=":cluster_104572642_4599846707_8484284983_8484443873_8484443874_8484443879_8484443880_8484443881_13_1" index="1" disallow="tram rail_urban rail rail_electric rail_fast ship" speed="25.00" length="22.10" shape="738.03,552.45 743.29,549.32 746.86,546.39 750.67,543.52 756.65,540.57"/>
        <lane id=":cluster_104572642_4599846707_8484284983_8484443873_8484443874_8484443879_8484443880_8484443881_13_2" index="2" disallow="tram rail_urban rail rail_electric rail_fast ship" speed="25.00" length="22.10" shape="738.03,552.45 757.82,543.55"/>
    </edge>
    <edge id=":cluster_104572642_4599846707_8484284983_8484443873_8484443874_8484443879_8484443880_8484443881_16" function="internal">
        <lane id=":cluster_104572642_4599846707_8484284983_8484443873_8484443874_8484443879_8484443880_8484443881_16_0" index="0" disallow="tram rail_urban rail rail_electric rail_fast ship" speed="9.19" length="5.43" shape="738.03,552.45 743.20,550.80"/>
    </edge>
    <edge id=":cluster_104572642_4599846707_8484284983_8484443873_8484443874_8484443879_8484443880_8484443881_20" function="internal">
        <lane id=":cluster_104572642_4599846707_8484284983_8484443873_8484443874_8484443879_8484443880_8484443881_20_0" index="0" disallow="tram rail_urban rail rail_electric rail_fast ship" speed="9.19" length="14.27" shape="743.20,550.80 747.60,551.23 751.21,553.77 754.06,558.39"/>
    </edge>
    <edge id=":cluster_104945598_8484284971_8484443912_8484445225_0" function="internal">
        <lane id=":cluster_104945598_8484284971_8484443912_8484445225_0_0" index="0" disallow="tram rail_urban rail rail_electric rail_fast ship" speed="6.54" length="9.08" shape="556.94,366.86 555.56,364.81 553.84,363.70 551.79,363.51 549.40,364.26"/>
    </edge>
    <edge id=":cluster_104945598_8484284971_8484443912_8484445225_1" function="internal">
        <lane id=":cluster_104945598_8484284971_8484443912_8484445225_1_0" index="0" disallow="tram rail_urban rail rail_electric rail_fast ship" speed="13.89" length="17.60" shape="556.94,366.86 549.26,351.02"/>
    </edge>
    <edge id=":cluster_104945598_8484284971_8484443912_8484445225_2" function="internal">
        <lane id=":cluster_104945598_8484284971_8484443912_8484445225_2_0" index="0" disallow="tram rail_urban rail rail_electric rail_fast ship" speed="22.22" length="11.75" shape="558.09,356.56 555.26,358.47 553.75,360.41 552.23,362.36 549.40,364.26"/>
        <lane id=":cluster_104945598_8484284971_8484443912_8484445225_2_1" index="1" disallow="tram rail_urban rail rail_electric rail_fast ship" speed="22.22" length="11.75" shape="556.71,353.68 553.88,355.58 552.37,357.53 550.85,359.47 548.02,361.38"/>
    </edge>
    <edge id=":cluster_104945598_8484284971_8484443912_8484445225_4" function="internal">
        <lane id=":cluster_104945598_8484284971_8484443912_8484445225_4_0" index="0" disallow="tram rail_urban rail rail_electric rail_fast ship" speed="6.51" length="5.38" shape="556.71,353.68 554.37,354.41 552.35,354.21 551.60,353.71"/>
    </edge>
    <edge id=":cluster_104945598_8484284971_8484443912_8484445225_6" function="internal">
        <lane id=":cluster_104945598_8484284971_8484443912_8484445225_6_0" index="0" disallow="tram rail_urban rail rail_electric rail_fast ship" speed="6.51" length="3.62" shape="551.60,353.71 550.64,353.08 549.26,351.02"/>
    </edge>
    <edge id=":cluster_104945598_8484284971_8484443912_8484445225_5" function="internal">
        <lane id=":cluster_104945598_8484284971_8484443912_8484445225_5_0" index="0" disallow="tram rail_urban rail rail_electric rail_fast ship" speed="6.49" length="9.03" shape="546.65,358.49 548.71,357.11 549.83,355.41 550.02,353.38 549.26,351.02"/>
    </edge>
    <edge id=":cluster_105012331_5312909754_5312909756_8484445227_8484452927_0" function="internal">
        <lane id=":cluster_105012331_5312909754_5312909756_8484445227_8484452927_0_0" index="0" disallow="tram rail_urban rail rail_electric rail_fast ship" speed="6.97" length="9.94" shape="598.99,444.05 597.46,442.03 595.53,440.97 593.19,440.85 590.45,441.69"/>
    </edge>
    <edge id=":cluster_105012331_5312909754_5312909756_8484445227_8484452927_1" function="internal">
        <lane id=":cluster_105012331_5312909754_5312909756_8484445227_8484452927_1_0" index="0" disallow="tram rail_urban rail rail_electric rail_fast ship" speed="13.89" length="20.99" shape="598.99,444.05 589.01,425.58"/>
    </edge>
    <edge id=":cluster_105012331_5312909754_5312909756_8484445227_8484452927_2" function="internal">
        <lane id=":cluster_105012331_5312909754_5312909756_8484445227_8484452927_2_0" index="0" disallow="tram rail_urban rail rail_electric rail_fast ship" speed="8.14" length="15.13" shape="598.99,444.05 596.87,439.22 596.20,435.35 596.97,432.46 599.19,430.53"/>
    </edge>
    <edge id=":cluster_105012331_5312909754_5312909756_8484445227_8484452927_3" function="internal">
        <lane id=":cluster_105012331_5312909754_5312909756_8484445227_8484452927_3_0" index="0" disallow="tram rail_urban rail rail_electric rail_fast ship" speed="11.18" length="12.69" shape="602.00,436.28 590.45,441.69"/>
        <lane id=":cluster_105012331_5312909754_5312909756_8484445227_8484452927_3_1" index="1" disallow="tram rail_urban rail rail_electric rail_fast ship" speed="11.18" length="12.69" shape="600.59,433.41 589.15,438.76"/>
    </edge>
    <edge id=":cluster_105012331_5312909754_5312909756_8484445227_8484452927_5" function="internal">
        <lane id=":cluster_105012331_5312909754_5312909756_8484445227_8484452927_5_0" index="0" disallow="tram rail_urban rail rail_electric rail_fast ship" speed="8.53" length="2.64" shape="600.59,433.41 598.00,433.88"/>
    </edge>
    <edge id=":cluster_105012331_5312909754_5312909756_8484445227_8484452927_9" function="internal">
        <lane id=":cluster_105012331_5312909754_5312909756_8484445227_8484452927_9_0" index="0" disallow="tram rail_urban rail rail_electric rail_fast ship" speed="8.53" length="12.62" shape="598.00,433.88 597.85,433.90 595.01,432.77 592.06,429.99 589.01,425.58"/>
    </edge>
    <edge id=":cluster_105012331_5312909754_5312909756_8484445227_8484452927_6" function="internal">
        <lane id=":cluster_105012331_5312909754_5312909756_8484445227_8484452927_6_0" index="0" disallow="tram rail_urban rail rail_electric rail_fast ship" speed="6.28" length="9.08" shape="586.54,432.92 588.72,431.56 589.86,429.88 589.95,427.89 589.01,425.58"/>
    </edge>
    <edge id=":cluster_105012331_5312909754_5312909756_8484445227_8484452927_7" function="internal">
        <lane id=":cluster_105012331_5312909754_5312909756_8484445227_8484452927_7_0" index="0" disallow="tram rail_urban rail rail_electric rail_fast ship" speed="11.18" length="12.47" shape="586.54,432.92 597.78,427.66"/>
        <lane id=":cluster_105012331_5312909754_5312909756_8484445227_8484452927_7_1" index="1" disallow="tram rail_urban rail rail_electric rail_fast ship" speed="11.18" length="12.47" shape="587.85,435.84 599.19,430.53"/>
    </edge>
    <edge id=":cluster_105012342_8484443890_8484452928_8484452936_8484452937_0" function="internal">
        <lane id=":cluster_105012342_8484443890_8484452928_8484452936_8484452937_0_0" index="0" disallow="tram rail_urban rail rail_electric rail_fast ship" speed="6.71" length="9.27" shape="638.65,518.30 637.17,516.33 635.37,515.28 633.23,515.16 630.77,515.95"/>
    </edge>
    <edge id=":cluster_105012342_8484443890_8484452928_8484452936_8484452937_1" function="internal">
        <lane id=":cluster_105012342_8484443890_8484452928_8484452936_8484452937_1_0" index="0" disallow="tram rail_urban rail rail_electric rail_fast ship" speed="13.89" length="14.40" shape="638.65,518.30 631.84,505.61"/>
    </edge>
    <edge id=":cluster_105012342_8484443890_8484452928_8484452936_8484452937_2" function="internal">
        <lane id=":cluster_105012342_8484443890_8484452928_8484452936_8484452937_2_0" index="0" disallow="tram rail_urban rail rail_electric rail_fast ship" speed="6.86" length="10.65" shape="638.65,518.30 637.52,515.39 637.54,512.94 638.70,510.94 641.00,509.39"/>
    </edge>
    <edge id=":cluster_105012342_8484443890_8484452928_8484452936_8484452937_3" function="internal">
        <lane id=":cluster_105012342_8484443890_8484452928_8484452936_8484452937_3_0" index="0" disallow="tram rail_urban rail rail_electric rail_fast ship" speed="6.41" length="9.04" shape="629.39,513.06 631.47,511.68 632.57,509.98 632.69,507.95 631.84,505.61"/>
    </edge>
    <edge id=":cluster_105012342_8484443890_8484452928_8484452936_8484452937_4" function="internal">
        <lane id=":cluster_105012342_8484443890_8484452928_8484452936_8484452937_4_0" index="0" disallow="tram rail_urban rail rail_electric rail_fast ship" speed="11.18" length="12.20" shape="629.39,513.06 632.47,511.87 635.19,511.20 637.90,510.54 641.00,509.39"/>
    </edge>
    <edge id=":cluster_105012740_4599846712_8484284976_8484284977_8484284978_8484443907_8484443908_8484443909_0" function="internal">
        <lane id=":cluster_105012740_4599846712_8484284976_8484284977_8484284978_8484443907_8484443908_8484443909_0_0" index="0" disallow="tram rail_urban rail rail_electric rail_fast ship" speed="7.41" length="11.86" shape="634.85,329.71 632.81,326.41 630.62,324.40 628.28,323.68 625.79,324.26"/>
    </edge>
    <edge id=":cluster_105012740_4599846712_8484284976_8484284977_8484284978_8484443907_8484443908_8484443909_1" function="internal">