<?xml version="1.0" encoding="UTF-8"?>
<routes xmlns:xsi="http://www.w3.org/2001/XMLSchema-instance" xsi:noNamespaceSchemaLocation="http://sumo.dlr.de/xsd/routes_file.xsd">

<vType id="noVar" speedFactor="1.0" speedDev="0.0"/>
<route id="route_WilliamPenn-Seventh-Sixth.79" edges="WilliamPenn-Seventh-Sixth WilliamPenn-Seventh-Sixth-2 Sixth-WilliamPenn-Grant Grant-Sixth-Oliver Grant-Oliver-Fifth Grant-Fifth-Forbes Grant-Forbes-Fourth" />
<vehicle type="noVar" depart="0" id="WilliamPenn-Seventh-Sixth.79" route="route_WilliamPenn-Seventh-Sixth.79" />
<route id="route_Grant-Seventh-Sixth.0" edges="Grant-Seventh-Sixth Grant-Seventh-Sixth-2 Grant-Sixth-Oliver Grant-Oliver-Fifth Grant-Fifth-Forbes Grant-Forbes-Fourth" />
<vehicle type="noVar" depart="3" id="Grant-Seventh-Sixth.0" route="route_Grant-Seventh-Sixth.0" />
<route id="route_Grant-Seventh-Sixth.28" edges="Grant-Seventh-Sixth Grant-Seventh-Sixth-2 Sixth-Grant-Ross Sixth-Ross-RHS" />
<vehicle type="noVar" depart="3" id="Grant-Seventh-Sixth.28" route="route_Grant-Seventh-Sixth.28" />
<route id="route_Oliver-Smithfield-WilliamPenn.132" edges="Oliver-Smithfield-WilliamPenn Oliver-Smithfield-WilliamPenn-2 Oliver-WilliamPenn-Grant Grant-Oliver-Sixth Sixth-Grant-Ross Sixth-Ross-RHS" />
<vehicle type="noVar" depart="3" id="Oliver-Smithfield-WilliamPenn.132" route="route_Oliver-Smithfield-WilliamPenn.132" />
<route id="route_Ross-Seventh-Sixth.59" edges="Ross-Seventh-Sixth Ross-Seventh-Sixth-2 Ross-Sixth-Fifth Fifth-Ross-Grant Fifth-Ross-Grant-2 Grant-Fifth-Forbes Grant-Forbes-Fourth" />
<vehicle type="noVar" depart="4" id="Ross-Seventh-Sixth.59" route="route_Ross-Seventh-Sixth.59" />
<route id="route_Grant-Seventh-Sixth.117" edges="Grant-Seventh-Sixth Grant-Seventh-Sixth-2 Grant-Sixth-Oliver Grant-Oliver-Fifth Grant-Fifth-Forbes Grant-Forbes-Fourth" />
<vehicle type="noVar" depart="5" id="Grant-Seventh-Sixth.117" route="route_Grant-Seventh-Sixth.117" />
<route id="route_Forbes-RHS-Ross.217" edges="Forbes-RHS-Ross Forbes-RHS-Ross-2 Ross-Forbes-Fourth" />
<vehicle type="noVar" depart="5" id="Forbes-RHS-Ross.217" route="route_Forbes-RHS-Ross.217" />
<route id="route_Forbes-RHS-Ross.379" edges="Forbes-RHS-Ross Forbes-RHS-Ross-2 Ross-Forbes-Fourth" />
<vehicle type="noVar" depart="5" id="Forbes-RHS-Ross.379" route="route_Forbes-RHS-Ross.379" />
<route id="route_Ross-Fourth-Forbes.225" edges="Ross-Fourth-Forbes Ross-Fourth-Forbes-2 Ross-Forbes-Fifth Fifth-Ross-Grant Fifth-Ross-Grant-2 Fifth-Grant-WilliamPenn Fifth-WilliamPenn-Smithfield" />
<vehicle type="noVar" depart="5" id="Ross-Fourth-Forbes.225" route="route_Ross-Fourth-Forbes.225" />
<route id="route_Grant-Seventh-Sixth.23" edges="Grant-Seventh-Sixth Grant-Seventh-Sixth-2 Grant-Sixth-Oliver Grant-Oliver-Fifth Grant-Fifth-Forbes Grant-Forbes-Fourth" />
<vehicle type="noVar" depart="6" id="Grant-Seventh-Sixth.23" route="route_Grant-Seventh-Sixth.23" />
<route id="route_Fifth-Smithfield-WilliamPenn.33" edges="Fifth-Smithfield-WilliamPenn Fifth-Smithfield-WilliamPenn-2 Fifth-WilliamPenn-Grant Grant-Fifth-Oliver Grant-Oliver-Sixth Grant-Sixth-Seventh" />
<vehicle type="noVar" depart="6" id="Fifth-Smithfield-WilliamPenn.33" route="route_Fifth-Smithfield-WilliamPenn.33" />
<route id="route_Sixth-RHS-Ross.359" edges="Sixth-RHS-Ross Sixth-RHS-Ross-2 Sixth-Ross-Grant Sixth-Grant-WilliamPenn WilliamPenn-Sixth-Oliver WilliamPenn-Oliver-Fifth Fifth-WilliamPenn-Smithfield" />
<vehicle type="noVar" depart="6" id="Sixth-RHS-Ross.359" route="route_Sixth-RHS-Ross.359" />
<route id="route_Oliver-Smithfield-WilliamPenn.4" edges="Oliver-Smithfield-WilliamPenn Oliver-Smithfield-WilliamPenn-2 WilliamPenn-Oliver-Fifth WilliamPenn-Fifth-Forbes WilliamPenn-Forbes-Fourth" />
<vehicle type="noVar" depart="7" id="Oliver-Smithfield-WilliamPenn.4" route="route_Oliver-Smithfield-WilliamPenn.4" />
<route id="route_Sixth-Smithfield-WilliamPenn.55" edges="Sixth-Smithfield-WilliamPenn Sixth-Smithfield-WilliamPenn-2 Sixth-WilliamPenn-Grant Sixth-Grant-Ross Sixth-Ross-RHS" />
<vehicle type="noVar" depart="9" id="Sixth-Smithfield-WilliamPenn.55" route="route_Sixth-Smithfield-WilliamPenn.55" />
<route id="route_Sixth-RHS-Ross.204" edges="Sixth-RHS-Ross Sixth-RHS-Ross-2 Ross-Sixth-Seventh" />
<vehicle type="noVar" depart="9" id="Sixth-RHS-Ross.204" route="route_Sixth-RHS-Ross.204" />
<route id="route_Grant-Fourth-Forbes.261" edges="Grant-Fourth-Forbes Grant-Fourth-Forbes-2 Grant-Fourth-Forbes-3 Forbes-Grant-Ross Forbes-Ross-RHS" />
<vehicle type="noVar" depart="10" id="Grant-Fourth-Forbes.261" route="route_Grant-Fourth-Forbes.261" />
<route id="route_Grant-Seventh-Sixth.252" edges="Grant-Seventh-Sixth Grant-Seventh-Sixth-2 Grant-Sixth-Oliver Grant-Oliver-Fifth Fifth-Grant-WilliamPenn Fifth-WilliamPenn-Smithfield" />
<vehicle type="noVar" depart="13" id="Grant-Seventh-Sixth.252" route="route_Grant-Seventh-Sixth.252" />
<route id="route_Forbes-RHS-Ross.337" edges="Forbes-RHS-Ross Forbes-RHS-Ross-2 Forbes-Ross-Grant Grant-Forbes-Fourth" />
<vehicle type="noVar" depart="16" id="Forbes-RHS-Ross.337" route="route_Forbes-RHS-Ross.337" />
<route id="route_Ross-Fourth-Forbes.256" edges="Ross-Fourth-Forbes Ross-Fourth-Forbes-2 Ross-Forbes-Fifth Ross-Fifth-Sixth Ross-Sixth-Seventh" />
<vehicle type="noVar" depart="16" id="Ross-Fourth-Forbes.256" route="route_Ross-Fourth-Forbes.256" />
<route id="route_Ross-Fourth-Forbes.295" edges="Ross-Fourth-Forbes Ross-Fourth-Forbes-2 Forbes-Ross-RHS" />
<vehicle type="noVar" depart="16" id="Ross-Fourth-Forbes.295" route="route_Ross-Fourth-Forbes.295" />
<route id="route_Ross-Seventh-Sixth.447" edges="Ross-Seventh-Sixth Ross-Seventh-Sixth-2 Sixth-Ross-RHS" />
<vehicle type="noVar" depart="19" id="Ross-Seventh-Sixth.447" route="route_Ross-Seventh-Sixth.447" />
<route id="route_Sixth-RHS-Ross.35" edges="Sixth-RHS-Ross Sixth-RHS-Ross-2 Ross-Sixth-Seventh" />
<vehicle type="noVar" depart="19" id="Sixth-RHS-Ross.35" route="route_Sixth-RHS-Ross.35" />
<route id="route_Ross-Seventh-Sixth.348" edges="Ross-Seventh-Sixth Ross-Seventh-Sixth-2 Sixth-Ross-RHS" />
<vehicle type="noVar" depart="20" id="Ross-Seventh-Sixth.348" route="route_Ross-Seventh-Sixth.348" />
<route id="route_Ross-Fourth-Forbes.409" edges="Ross-Fourth-Forbes Ross-Fourth-Forbes-2 Ross-Forbes-Fifth Ross-Fifth-Sixth Ross-Sixth-Seventh" />
<vehicle type="noVar" depart="20" id="Ross-Fourth-Forbes.409" route="route_Ross-Fourth-Forbes.409" />
<route id="route_Ross-Seventh-Sixth.248" edges="Ross-Seventh-Sixth Ross-Seventh-Sixth-2 Ross-Sixth-Fifth Fifth-Ross-RHS" />
<vehicle type="noVar" depart="22" id="Ross-Seventh-Sixth.248" route="route_Ross-Seventh-Sixth.248" />
<route id="route_Grant-Seventh-Sixth.265" edges="Grant-Seventh-Sixth Grant-Seventh-Sixth-2 Grant-Sixth-Oliver Grant-Oliver-Fifth Grant-Fifth-Forbes Grant-Forbes-Fourth" />
<vehicle type="noVar" depart="23" id="Grant-Seventh-Sixth.265" route="route_Grant-Seventh-Sixth.265" />
<route id="route_Ross-Seventh-Sixth.428" edges="Ross-Seventh-Sixth Ross-Seventh-Sixth-2 Sixth-Ross-Grant Sixth-Grant-WilliamPenn WilliamPenn-Sixth-Oliver WilliamPenn-Oliver-Fifth WilliamPenn-Fifth-Forbes WilliamPenn-Forbes-Fourth" />
<vehicle type="noVar" depart="23" id="Ross-Seventh-Sixth.428" route="route_Ross-Seventh-Sixth.428" />
<route id="route_Grant-Seventh-Sixth.171" edges="Grant-Seventh-Sixth Grant-Seventh-Sixth-2 Grant-Sixth-Oliver Grant-Oliver-Fifth Grant-Fifth-Forbes Grant-Forbes-Fourth" />
<vehicle type="noVar" depart="24" id="Grant-Seventh-Sixth.171" route="route_Grant-Seventh-Sixth.171" />
<route id="route_Sixth-RHS-Ross.284" edges="Sixth-RHS-Ross Sixth-RHS-Ross-2 Ross-Sixth-Seventh" />
<vehicle type="noVar" depart="24" id="Sixth-RHS-Ross.284" route="route_Sixth-RHS-Ross.284" />
<route id="route_Ross-Fourth-Forbes.178" edges="Ross-Fourth-Forbes Ross-Fourth-Forbes-2 Ross-Forbes-Fifth Fifth-Ross-RHS" />
<vehicle type="noVar" depart="24" id="Ross-Fourth-Forbes.178" route="route_Ross-Fourth-Forbes.178" />
<route id="route_Sixth-Smithfield-WilliamPenn.220" edges="Sixth-Smithfield-WilliamPenn Sixth-Smithfield-WilliamPenn-2 Sixth-WilliamPenn-Grant Sixth-Grant-Ross Ross-Sixth-Seventh" />
<vehicle type="noVar" depart="26" id="Sixth-Smithfield-WilliamPenn.220" route="route_Sixth-Smithfield-WilliamPenn.220" />
<route id="route_Ross-Seventh-Sixth.9" edges="Ross-Seventh-Sixth Ross-Seventh-Sixth-2 Sixth-Ross-Grant Sixth-Grant-WilliamPenn Sixth-WilliamPenn-Smithfield" />
<vehicle type="noVar" depart="26" id="Ross-Seventh-Sixth.9" route="route_Ross-Seventh-Sixth.9" />
<route id="route_WilliamPenn-Seventh-Sixth.265" edges="WilliamPenn-Seventh-Sixth WilliamPenn-Seventh-Sixth-2 Sixth-WilliamPenn-Smithfield" />
<vehicle type="noVar" depart="27" id="WilliamPenn-Seventh-Sixth.265" route="route_WilliamPenn-Seventh-Sixth.265" />
<route id="route_Grant-Fourth-Forbes.390" edges="Grant-Fourth-Forbes Grant-Fourth-Forbes-2 Grant-Fourth-Forbes-3 Grant-Forbes-Fifth Fifth-Grant-Ross Fifth-Grant-Ross-2 Ross-Fifth-Forbes Forbes-Ross-Grant Forbes-Grant-WilliamPenn WilliamPenn-Forbes-Fourth" />
<vehicle type="noVar" depart="27" id="Grant-Fourth-Forbes.390" route="route_Grant-Fourth-Forbes.390" />
<route id="route_Ross-Seventh-Sixth.485" edges="Ross-Seventh-Sixth Ross-Seventh-Sixth-2 Sixth-Ross-Grant Sixth-Grant-WilliamPenn WilliamPenn-Sixth-Oliver WilliamPenn-Oliver-Fifth WilliamPenn-Fifth-Forbes WilliamPenn-Forbes-Fourth" />
<vehicle type="noVar" depart="28" id="Ross-Seventh-Sixth.485" route="route_Ross-Seventh-Sixth.485" />
<route id="route_Sixth-RHS-Ross.338" edges="Sixth-RHS-Ross Sixth-RHS-Ross-2 Sixth-Ross-Grant Sixth-Grant-WilliamPenn Sixth-WilliamPenn-Smithfield" />
<vehicle type="noVar" depart="28" id="Sixth-RHS-Ross.338" route="route_Sixth-RHS-Ross.338" />
<route id="route_Grant-Seventh-Sixth.204" edges="Grant-Seventh-Sixth Grant-Seventh-Sixth-2 Sixth-Grant-Ross Ross-Sixth-Fifth Ross-Fifth-Forbes Ross-Forbes-Fourth" />
<vehicle type="noVar" depart="30" id="Grant-Seventh-Sixth.204" route="route_Grant-Seventh-Sixth.204" />
<route id="route_Sixth-RHS-Ross.324" edges="Sixth-RHS-Ross Sixth-RHS-Ross-2 Sixth-Ross-Grant Grant-Sixth-Seventh" />
<vehicle type="noVar" depart="31" id="Sixth-RHS-Ross.324" route="route_Sixth-RHS-Ross.324" />
<route id="route_WilliamPenn-Seventh-Sixth.113" edges="WilliamPenn-Seventh-Sixth WilliamPenn-Seventh-Sixth-2 Sixth-WilliamPenn-Grant Sixth-Grant-Ross Ross-Sixth-Seventh" />
<vehicle type="noVar" depart="32" id="WilliamPenn-Seventh-Sixth.113" route="route_WilliamPenn-Seventh-Sixth.113" />
<route id="route_Ross-Fourth-Forbes.456" edges="Ross-Fourth-Forbes Ross-Fourth-Forbes-2 Forbes-Ross-RHS" />
<vehicle type="noVar" depart="32" id="Ross-Fourth-Forbes.456" route="route_Ross-Fourth-Forbes.456" />
<route id="route_Sixth-RHS-Ross.382" edges="Sixth-RHS-Ross Sixth-RHS-Ross-2 Ross-Sixth-Seventh" />
<vehicle type="noVar" depart="33" id="Sixth-RHS-Ross.382" route="route_Sixth-RHS-Ross.382" />
<route id="route_Forbes-RHS-Ross.284" edges="Forbes-RHS-Ross Forbes-RHS-Ross-2 Forbes-Ross-Grant Forbes-Grant-WilliamPenn Forbes-WilliamPenn-Smithfield" />
<vehicle type="noVar" depart="33" id="Forbes-RHS-Ross.284" route="route_Forbes-RHS-Ross.284" />
<route id="route_Grant-Seventh-Sixth.395" edges="Grant-Seventh-Sixth Grant-Seventh-Sixth-2 Grant-Sixth-Oliver Grant-Oliver-Fifth Fifth-Grant-WilliamPenn Fifth-WilliamPenn-Smithfield" />
<vehicle type="noVar" depart="36" id="Grant-Seventh-Sixth.395" route="route_Grant-Seventh-Sixth.395" />
<route id="route_Ross-Fourth-Forbes.57" edges="Ross-Fourth-Forbes Ross-Fourth-Forbes-2 Ross-Forbes-Fifth Ross-Fifth-Sixth Ross-Sixth-Seventh" />
<vehicle type="noVar" depart="38" id="Ross-Fourth-Forbes.57" route="route_Ross-Fourth-Forbes.57" />
<route id="route_WilliamPenn-Seventh-Sixth.119" edges="WilliamPenn-Seventh-Sixth WilliamPenn-Seventh-Sixth-2 WilliamPenn-Sixth-Oliver WilliamPenn-Oliver-Fifth WilliamPenn-Fifth-Forbes Forbes-WilliamPenn-Smithfield" />
<vehicle type="noVar" depart="39" id="WilliamPenn-Seventh-Sixth.119" route="route_WilliamPenn-Seventh-Sixth.119" />
<route id="route_Grant-Seventh-Sixth.137" edges="Grant-Seventh-Sixth Grant-Seventh-Sixth-2 Grant-Sixth-Oliver Grant-Oliver-Fifth Grant-Fifth-Forbes Grant-Forbes-Fourth" />
<vehicle type="noVar" depart="40" id="Grant-Seventh-Sixth.137" route="route_Grant-Seventh-Sixth.137" />
<route id="route_Oliver-Smithfield-WilliamPenn.15" edges="Oliver-Smithfield-WilliamPenn Oliver-Smithfield-WilliamPenn-2 WilliamPenn-Oliver-Fifth Fifth-WilliamPenn-Grant Grant-Fifth-Forbes Grant-Forbes-Fourth" />
<vehicle type="noVar" depart="40" id="Oliver-Smithfield-WilliamPenn.15" route="route_Oliver-Smithfield-WilliamPenn.15" />
<route id="route_Grant-Seventh-Sixth.272" edges="Grant-Seventh-Sixth Grant-Seventh-Sixth-2 Grant-Sixth-Oliver Grant-Oliver-Fifth Grant-Fifth-Forbes Grant-Forbes-Fourth" />
<vehicle type="noVar" depart="41" id="Grant-Seventh-Sixth.272" route="route_Grant-Seventh-Sixth.272" />
<route id="route_Grant-Seventh-Sixth.166" edges="Grant-Seventh-Sixth Grant-Seventh-Sixth-2 Grant-Sixth-Oliver Grant-Oliver-Fifth Grant-Fifth-Forbes Grant-Forbes-Fourth" />
<vehicle type="noVar" depart="44" id="Grant-Seventh-Sixth.166" route="route_Grant-Seventh-Sixth.166" />
<route id="route_Ross-Seventh-Sixth.29" edges="Ross-Seventh-Sixth Ross-Seventh-Sixth-2 Ross-Sixth-Fifth Ross-Fifth-Forbes Ross-Forbes-Fourth" />
<vehicle type="noVar" depart="44" id="Ross-Seventh-Sixth.29" route="route_Ross-Seventh-Sixth.29" />
<route id="route_Oliver-Smithfield-WilliamPenn.160" edges="Oliver-Smithfield-WilliamPenn Oliver-Smithfield-WilliamPenn-2 Oliver-WilliamPenn-Grant Grant-Oliver-Fifth Grant-Fifth-Forbes Forbes-Grant-WilliamPenn WilliamPenn-Forbes-Fourth" />
<vehicle type="noVar" depart="45" id="Oliver-Smithfield-WilliamPenn.160" route="route_Oliver-Smithfield-WilliamPenn.160" />
<route id="route_Ross-Seventh-Sixth.176" edges="Ross-Seventh-Sixth Ross-Seventh-Sixth-2 Sixth-Ross-Grant Sixth-Grant-WilliamPenn Sixth-WilliamPenn-Smithfield" />
<vehicle type="noVar" depart="45" id="Ross-Seventh-Sixth.176" route="route_Ross-Seventh-Sixth.176" />
<route id="route_Ross-Fourth-Forbes.190" edges="Ross-Fourth-Forbes Ross-Fourth-Forbes-2 Ross-Forbes-Fifth Ross-Fifth-Sixth Sixth-Ross-RHS" />
<vehicle type="noVar" depart="45" id="Ross-Fourth-Forbes.190" route="route_Ross-Fourth-Forbes.190" />
<route id="route_Sixth-RHS-Ross.165" edges="Sixth-RHS-Ross Sixth-RHS-Ross-2 Ross-Sixth-Seventh" />
<vehicle type="noVar" depart="47" id="Sixth-RHS-Ross.165" route="route_Sixth-RHS-Ross.165" />
<route id="route_Forbes-RHS-Ross.450" edges="Forbes-RHS-Ross Forbes-RHS-Ross-2 Ross-Forbes-Fourth" />
<vehicle type="noVar" depart="47" id="Forbes-RHS-Ross.450" route="route_Forbes-RHS-Ross.450" />
<route id="route_Ross-Fourth-Forbes.442" edges="Ross-Fourth-Forbes Ross-Fourth-Forbes-2 Ross-Forbes-Fifth Fifth-Ross-Grant Fifth-Ross-Grant-2 Fifth-Grant-WilliamPenn Fifth-WilliamPenn-Smithfield" />
<vehicle type="noVar" depart="48" id="Ross-Fourth-Forbes.442" route="route_Ross-Fourth-Forbes.442" />
<route id="route_Sixth-Smithfield-WilliamPenn.257" edges="Sixth-Smithfield-WilliamPenn Sixth-Smithfield-WilliamPenn-2 Sixth-WilliamPenn-Grant Grant-Sixth-Seventh" />
<vehicle type="noVar" depart="49" id="Sixth-Smithfield-WilliamPenn.257" route="route_Sixth-Smithfield-WilliamPenn.257" />
<route id="route_Grant-Seventh-Sixth.364" edges="Grant-Seventh-Sixth Grant-Seventh-Sixth-2 Grant-Sixth-Oliver Grant-Oliver-Fifth Grant-Fifth-Forbes Forbes-Grant-WilliamPenn Forbes-WilliamPenn-Smithfield" />
<vehicle type="noVar" depart="50" id="Grant-Seventh-Sixth.364" route="route_Grant-Seventh-Sixth.364" />
<route id="route_Ross-Seventh-Sixth.406" edges="Ross-Seventh-Sixth Ross-Seventh-Sixth-2 Ross-Sixth-Fifth Fifth-Ross-RHS" />
<vehicle type="noVar" depart="50" id="Ross-Seventh-Sixth.406" route="route_Ross-Seventh-Sixth.406" />
<route id="route_Ross-Seventh-Sixth.493" edges="Ross-Seventh-Sixth Ross-Seventh-Sixth-2 Ross-Sixth-Fifth Fifth-Ross-Grant Fifth-Ross-Grant-2 Fifth-Grant-WilliamPenn Fifth-WilliamPenn-Smithfield" />
<vehicle type="noVar" depart="50" id="Ross-Seventh-Sixth.493" route="route_Ross-Seventh-Sixth.493" />
<route id="route_Grant-Seventh-Sixth.14" edges="Grant-Seventh-Sixth Grant-Seventh-Sixth-2 Grant-Sixth-Oliver Grant-Oliver-Fifth Grant-Fifth-Forbes Forbes-Grant-WilliamPenn WilliamPenn-Forbes-Fourth" />
<vehicle type="noVar" depart="51" id="Grant-Seventh-Sixth.14" route="route_Grant-Seventh-Sixth.14" />
<route id="route_Sixth-Smithfield-WilliamPenn.161" edges="Sixth-Smithfield-WilliamPenn Sixth-Smithfield-WilliamPenn-2 Sixth-WilliamPenn-Grant Grant-Sixth-Oliver Grant-Oliver-Fifth Grant-Fifth-Forbes Grant-Forbes-Fourth" />
<vehicle type="noVar" depart="51" id="Sixth-Smithfield-WilliamPenn.161" route="route_Sixth-Smithfield-WilliamPenn.161" />
<route id="route_Forbes-RHS-Ross.186" edges="Forbes-RHS-Ross Forbes-RHS-Ross-2 Forbes-Ross-Grant Forbes-Grant-WilliamPenn WilliamPenn-Forbes-Fourth" />
<vehicle type="noVar" depart="52" id="Forbes-RHS-Ross.186" route="route_Forbes-RHS-Ross.186" />
<route id="route_Ross-Fourth-Forbes.10" edges="Ross-Fourth-Forbes Ross-Fourth-Forbes-2 Ross-Forbes-Fifth Ross-Fifth-Sixth Ross-Sixth-Seventh" />
<vehicle type="noVar" depart="52" id="Ross-Fourth-Forbes.10" route="route_Ross-Fourth-Forbes.10" />
<route id="route_WilliamPenn-Seventh-Sixth.30" edges="WilliamPenn-Seventh-Sixth WilliamPenn-Seventh-Sixth-2 WilliamPenn-Sixth-Oliver Oliver-WilliamPenn-Grant Grant-Oliver-Sixth Grant-Sixth-Seventh" />
<vehicle type="noVar" depart="54" id="WilliamPenn-Seventh-Sixth.30" route="route_WilliamPenn-Seventh-Sixth.30" />
<route id="route_Ross-Seventh-Sixth.375" edges="Ross-Seventh-Sixth Ross-Seventh-Sixth-2 Sixth-Ross-Grant Grant-Sixth-Seventh" />
<vehicle type="noVar" depart="57" id="Ross-Seventh-Sixth.375" route="route_Ross-Seventh-Sixth.375" />
<route id="route_WilliamPenn-Seventh-Sixth.70" edges="WilliamPenn-Seventh-Sixth WilliamPenn-Seventh-Sixth-2 Sixth-WilliamPenn-Grant Sixth-Grant-Ross Sixth-Ross-RHS" />
<vehicle type="noVar" depart="58" id="WilliamPenn-Seventh-Sixth.70" route="route_WilliamPenn-Seventh-Sixth.70" />
<route id="route_Ross-Seventh-Sixth.473" edges="Ross-Seventh-Sixth Ross-Seventh-Sixth-2 Sixth-Ross-Grant Grant-Sixth-Oliver Grant-Oliver-Fifth Grant-Fifth-Forbes Grant-Forbes-Fourth" />
<vehicle type="noVar" depart="58" id="Ross-Seventh-Sixth.473" route="route_Ross-Seventh-Sixth.473" />
<route id="route_Grant-Seventh-Sixth.306" edges="Grant-Seventh-Sixth Grant-Seventh-Sixth-2 Grant-Sixth-Oliver Grant-Oliver-Fifth Grant-Fifth-Forbes Grant-Forbes-Fourth" />
<vehicle type="noVar" depart="59" id="Grant-Seventh-Sixth.306" route="route_Grant-Seventh-Sixth.306" />
<route id="route_WilliamPenn-Seventh-Sixth.96" edges="WilliamPenn-Seventh-Sixth WilliamPenn-Seventh-Sixth-2 Sixth-WilliamPenn-Grant Sixth-Grant-Ross Sixth-Ross-RHS" />
<vehicle type="noVar" depart="59" id="WilliamPenn-Seventh-Sixth.96" route="route_WilliamPenn-Seventh-Sixth.96" />
<route id="route_Sixth-Smithfield-WilliamPenn.247" edges="Sixth-Smithfield-WilliamPenn Sixth-Smithfield-WilliamPenn-2 Sixth-WilliamPenn-Grant Sixth-Grant-Ross Sixth-Ross-RHS" />
<vehicle type="noVar" depart="59" id="Sixth-Smithfield-WilliamPenn.247" route="route_Sixth-Smithfield-WilliamPenn.247" />
<route id="route_Grant-Seventh-Sixth.165" edges="Grant-Seventh-Sixth Grant-Seventh-Sixth-2 Sixth-Grant-Ross Ross-Sixth-Seventh" />
<vehicle type="noVar" depart="60" id="Grant-Seventh-Sixth.165" route="route_Grant-Seventh-Sixth.165" />
<route id="route_WilliamPenn-Seventh-Sixth.215" edges="WilliamPenn-Seventh-Sixth WilliamPenn-Seventh-Sixth-2 Sixth-WilliamPenn-Grant Grant-Sixth-Seventh" />
<vehicle type="noVar" depart="65" id="WilliamPenn-Seventh-Sixth.215" route="route_WilliamPenn-Seventh-Sixth.215" />
<route id="route_WilliamPenn-Seventh-Sixth.232" edges="WilliamPenn-Seventh-Sixth WilliamPenn-Seventh-Sixth-2 WilliamPenn-Sixth-Oliver Oliver-WilliamPenn-Grant Grant-Oliver-Sixth Sixth-Grant-WilliamPenn Sixth-WilliamPenn-Smithfield" />
<vehicle type="noVar" depart="65" id="WilliamPenn-Seventh-Sixth.232" route="route_WilliamPenn-Seventh-Sixth.232" />
<route id="route_WilliamPenn-Seventh-Sixth.272" edges="WilliamPenn-Seventh-Sixth WilliamPenn-Seventh-Sixth-2 Sixth-WilliamPenn-Smithfield" />
<vehicle type="noVar" depart="65" id="WilliamPenn-Seventh-Sixth.272" route="route_WilliamPenn-Seventh-Sixth.272" />
<route id="route_Grant-Seventh-Sixth.416" edges="Grant-Seventh-Sixth Grant-Seventh-Sixth-2 Sixth-Grant-Ross Sixth-Ross-RHS" />
<vehicle type="noVar" depart="67" id="Grant-Seventh-Sixth.416" route="route_Grant-Seventh-Sixth.416" />
<route id="route_Oliver-Smithfield-WilliamPenn.266" edges="Oliver-Smithfield-WilliamPenn Oliver-Smithfield-WilliamPenn-2 Oliver-WilliamPenn-Grant Grant-Oliver-Fifth Grant-Fifth-Forbes Forbes-Grant-WilliamPenn Forbes-WilliamPenn-Smithfield" />
<vehicle type="noVar" depart="68" id="Oliver-Smithfield-WilliamPenn.266" route="route_Oliver-Smithfield-WilliamPenn.266" />
<route id="route_Sixth-RHS-Ross.208" edges="Sixth-RHS-Ross Sixth-RHS-Ross-2 Sixth-Ross-Grant Sixth-Grant-WilliamPenn WilliamPenn-Sixth-Oliver WilliamPenn-Oliver-Fifth Fifth-WilliamPenn-Smithfield" />
<vehicle type="noVar" depart="68" id="Sixth-RHS-Ross.208" route="route_Sixth-RHS-Ross.208" />
<route id="route_Ross-Fourth-Forbes.358" edges="Ross-Fourth-Forbes Ross-Fourth-Forbes-2 Forbes-Ross-Grant Forbes-Grant-WilliamPenn WilliamPenn-Forbes-Fourth" />
<vehicle type="noVar" depart="71" id="Ross-Fourth-Forbes.358" route="route_Ross-Fourth-Forbes.358" />
<route id="route_Fifth-Smithfield-WilliamPenn.8" edges="Fifth-Smithfield-WilliamPenn Fifth-Smithfield-WilliamPenn-2 Fifth-WilliamPenn-Grant Grant-Fifth-Oliver Grant-Oliver-Sixth Grant-Sixth-Seventh" />
<vehicle type="noVar" depart="73" id="Fifth-Smithfield-WilliamPenn.8" route="route_Fifth-Smithfield-WilliamPenn.8" />
<route id="route_Sixth-RHS-Ross.350" edges="Sixth-RHS-Ross Sixth-RHS-Ross-2 Ross-Sixth-Fifth Ross-Fifth-Forbes Ross-Forbes-Fourth" />
<vehicle type="noVar" depart="74" id="Sixth-RHS-Ross.350" route="route_Sixth-RHS-Ross.350" />
<route id="route_Oliver-Smithfield-WilliamPenn.155" edges="Oliver-Smithfield-WilliamPenn Oliver-Smithfield-WilliamPenn-2 WilliamPenn-Oliver-Fifth WilliamPenn-Fifth-Forbes Forbes-WilliamPenn-Smithfield" />
<vehicle type="noVar" depart="75" id="Oliver-Smithfield-WilliamPenn.155" route="route_Oliver-Smithfield-WilliamPenn.155" />
<route id="route_Ross-Fourth-Forbes.465" edges="Ross-Fourth-Forbes Ross-Fourth-Forbes-2 Forbes-Ross-Grant Forbes-Grant-WilliamPenn Forbes-WilliamPenn-Smithfield" />
<vehicle type="noVar" depart="75" id="Ross-Fourth-Forbes.465" route="route_Ross-Fourth-Forbes.465" />
<route id="route_Grant-Seventh-Sixth.422" edges="Grant-Seventh-Sixth Grant-Seventh-Sixth-2 Grant-Sixth-Oliver Grant-Oliver-Fifth Grant-Fifth-Forbes Grant-Forbes-Fourth" />
<vehicle type="noVar" depart="76" id="Grant-Seventh-Sixth.422" route="route_Grant-Seventh-Sixth.422" />
<route id="route_WilliamPenn-Seventh-Sixth.128" edges="WilliamPenn-Seventh-Sixth WilliamPenn-Seventh-Sixth-2 Sixth-WilliamPenn-Grant Sixth-Grant-Ross Sixth-Ross-RHS" />
<vehicle type="noVar" depart="76" id="WilliamPenn-Seventh-Sixth.128" route="route_WilliamPenn-Seventh-Sixth.128" />
<route id="route_Grant-Seventh-Sixth.390" edges="Grant-Seventh-Sixth Grant-Seventh-Sixth-2 Grant-Sixth-Oliver Grant-Oliver-Fifth Grant-Fifth-Forbes Forbes-Grant-WilliamPenn WilliamPenn-Forbes-Fourth" />
<vehicle type="noVar" depart="78" id="Grant-Seventh-Sixth.390" route="route_Grant-Seventh-Sixth.390" />
<route id="route_Forbes-Smithfield-WilliamPenn.32" edges="Forbes-Smithfield-WilliamPenn Forbes-Smithfield-WilliamPenn-2 WilliamPenn-Forbes-Fourth" />
<vehicle type="noVar" depart="78" id="Forbes-Smithfield-WilliamPenn.32" route="route_Forbes-Smithfield-WilliamPenn.32" />
<route id="route_Grant-Fourth-Forbes.444" edges="Grant-Fourth-Forbes Grant-Fourth-Forbes-2 Grant-Fourth-Forbes-3 Grant-Forbes-Fifth Grant-Fifth-Oliver Grant-Oliver-Sixth Grant-Sixth-Seventh" />
<vehicle type="noVar" depart="79" id="Grant-Fourth-Forbes.444" route="route_Grant-Fourth-Forbes.444" />
<route id="route_Ross-Fourth-Forbes.469" edges="Ross-Fourth-Forbes Ross-Fourth-Forbes-2 Forbes-Ross-RHS" />
<vehicle type="noVar" depart="81" id="Ross-Fourth-Forbes.469" route="route_Ross-Fourth-Forbes.469" />
<route id="route_Forbes-RHS-Ross.448" edges="Forbes-RHS-Ross Forbes-RHS-Ross-2 Forbes-Ross-Grant Grant-Forbes-Fourth" />
<vehicle type="noVar" depart="82" id="Forbes-RHS-Ross.448" route="route_Forbes-RHS-Ross.448" />
<route id="route_Sixth-RHS-Ross.287" edges="Sixth-RHS-Ross Sixth-RHS-Ross-2 Sixth-Ross-Grant Sixth-Grant-WilliamPenn Sixth-WilliamPenn-Smithfield" />
<vehicle type="noVar" depart="83" id="Sixth-RHS-Ross.287" route="route_Sixth-RHS-Ross.287" />
<route id="route_WilliamPenn-Seventh-Sixth.180" edges="WilliamPenn-Seventh-Sixth WilliamPenn-Seventh-Sixth-2 WilliamPenn-Sixth-Oliver WilliamPenn-Oliver-Fifth Fifth-WilliamPenn-Smithfield" />
<vehicle type="noVar" depart="84" id="WilliamPenn-Seventh-Sixth.180" route="route_WilliamPenn-Seventh-Sixth.180" />
<route id="route_Grant-Fourth-Forbes.16" edges="Grant-Fourth-Forbes Grant-Fourth-Forbes-2 Grant-Fourth-Forbes-3 Forbes-Grant-Ross Ross-Forbes-Fourth" />
<vehicle type="noVar" depart="84" id="Grant-Fourth-Forbes.16" route="route_Grant-Fourth-Forbes.16" />
<route id="route_Grant-Fourth-Forbes.137" edges="Grant-Fourth-Forbes Grant-Fourth-Forbes-2 Grant-Fourth-Forbes-3 Grant-Forbes-Fifth Grant-Fifth-Oliver Grant-Oliver-Sixth Sixth-Grant-Ross Sixth-Ross-RHS" />
<vehicle type="noVar" depart="85" id="Grant-Fourth-Forbes.137" route="route_Grant-Fourth-Forbes.137" />
<route id="route_Fifth-RHS-Ross.294" edges="Fifth-RHS-Ross Fifth-RHS-Ross-2 Ross-Fifth-Sixth Ross-Sixth-Seventh" />
<vehicle type="noVar" depart="85" id="Fifth-RHS-Ross.294" route="route_Fifth-RHS-Ross.294" />
<route id="route_Forbes-RHS-Ross.162" edges="Forbes-RHS-Ross Forbes-RHS-Ross-2 Forbes-Ross-Grant Grant-Forbes-Fourth" />
<vehicle type="noVar" depart="85" id="Forbes-RHS-Ross.162" route="route_Forbes-RHS-Ross.162" />
<route id="route_Grant-Fourth-Forbes.449" edges="Grant-Fourth-Forbes Grant-Fourth-Forbes-2 Grant-Fourth-Forbes-3 Grant-Forbes-Fifth Grant-Fifth-Oliver Grant-Oliver-Sixth Grant-Sixth-Seventh" />
<vehicle type="noVar" depart="86" id="Grant-Fourth-Forbes.449" route="route_Grant-Fourth-Forbes.449" />
<route id="route_Grant-Seventh-Sixth.484" edges="Grant-Seventh-Sixth Grant-Seventh-Sixth-2 Grant-Sixth-Oliver Grant-Oliver-Fifth Grant-Fifth-Forbes Grant-Forbes-Fourth" />
<vehicle type="noVar" depart="87" id="Grant-Seventh-Sixth.484" route="route_Grant-Seventh-Sixth.484" />
<route id="route_Oliver-Smithfield-WilliamPenn.190" edges="Oliver-Smithfield-WilliamPenn Oliver-Smithfield-WilliamPenn-2 WilliamPenn-Oliver-Fifth Fifth-WilliamPenn-Smithfield" />
<vehicle type="noVar" depart="87" id="Oliver-Smithfield-WilliamPenn.190" route="route_Oliver-Smithfield-WilliamPenn.190" />
<route id="route_Fifth-RHS-Ross.260" edges="Fifth-RHS-Ross Fifth-RHS-Ross-2 Ross-Fifth-Forbes Ross-Forbes-Fourth" />
<vehicle type="noVar" depart="88" id="Fifth-RHS-Ross.260" route="route_Fifth-RHS-Ross.260" />
<route id="route_Forbes-RHS-Ross.449" edges="Forbes-RHS-Ross Forbes-RHS-Ross-2 Forbes-Ross-Grant Forbes-Grant-WilliamPenn Forbes-WilliamPenn-Smithfield" />
<vehicle type="noVar" depart="88" id="Forbes-RHS-Ross.449" route="route_Forbes-RHS-Ross.449" />
<route id="route_Forbes-RHS-Ross.33" edges="Forbes-RHS-Ross Forbes-RHS-Ross-2 Forbes-Ross-Grant Forbes-Grant-WilliamPenn WilliamPenn-Forbes-Fourth" />
<vehicle type="noVar" depart="89" id="Forbes-RHS-Ross.33" route="route_Forbes-RHS-Ross.33" />
<route id="route_Grant-Seventh-Sixth.62" edges="Grant-Seventh-Sixth Grant-Seventh-Sixth-2 Grant-Sixth-Oliver Grant-Oliver-Fifth Grant-Fifth-Forbes Grant-Forbes-Fourth" />
<vehicle type="noVar" depart="90" id="Grant-Seventh-Sixth.62" route="route_Grant-Seventh-Sixth.62" />
<route id="route_Ross-Fourth-Forbes.453" edges="Ross-Fourth-Forbes Ross-Fourth-Forbes-2 Forbes-Ross-RHS" />
<vehicle type="noVar" depart="91" id="Ross-Fourth-Forbes.453" route="route_Ross-Fourth-Forbes.453" />
<route id="route_Ross-Fourth-Forbes.455" edges="Ross-Fourth-Forbes Ross-Fourth-Forbes-2 Forbes-Ross-RHS" />
<vehicle type="noVar" depart="93" id="Ross-Fourth-Forbes.455" route="route_Ross-Fourth-Forbes.455" />
<route id="route_Ross-Fourth-Forbes.279" edges="Ross-Fourth-Forbes Ross-Fourth-Forbes-2 Forbes-Ross-RHS" />
<vehicle type="noVar" depart="95" id="Ross-Fourth-Forbes.279" route="route_Ross-Fourth-Forbes.279" />
<route id="route_Fifth-RHS-Ross.89" edges="Fifth-RHS-Ross Fifth-RHS-Ross-2 Fifth-Ross-Grant Fifth-Ross-Grant-2 Grant-Fifth-Forbes Grant-Forbes-Fourth" />
<vehicle type="noVar" depart="96" id="Fifth-RHS-Ross.89" route="route_Fifth-RHS-Ross.89" />
<route id="route_Grant-Fourth-Forbes.365" edges="Grant-Fourth-Forbes Grant-Fourth-Forbes-2 Grant-Fourth-Forbes-3 Forbes-Grant-Ross Ross-Forbes-Fifth Ross-Fifth-Sixth Ross-Sixth-Seventh" />
<vehicle type="noVar" depart="97" id="Grant-Fourth-Forbes.365" route="route_Grant-Fourth-Forbes.365" />
<route id="route_Ross-Seventh-Sixth.185" edges="Ross-Seventh-Sixth Ross-Seventh-Sixth-2 Sixth-Ross-RHS" />
<vehicle type="noVar" depart="97" id="Ross-Seventh-Sixth.185" route="route_Ross-Seventh-Sixth.185" />
<route id="route_Sixth-Smithfield-WilliamPenn.166" edges="Sixth-Smithfield-WilliamPenn Sixth-Smithfield-WilliamPenn-2 Sixth-WilliamPenn-Grant Sixth-Grant-Ross Sixth-Ross-RHS" />
<vehicle type="noVar" depart="98" id="Sixth-Smithfield-WilliamPenn.166" route="route_Sixth-Smithfield-WilliamPenn.166" />
<route id="route_Grant-Seventh-Sixth.52" edges="Grant-Seventh-Sixth Grant-Seventh-Sixth-2 Grant-Sixth-Oliver Grant-Oliver-Fifth Grant-Fifth-Forbes Grant-Forbes-Fourth" />
<vehicle type="noVar" depart="99" id="Grant-Seventh-Sixth.52" route="route_Grant-Seventh-Sixth.52" />
<route id="route_Grant-Fifth-Oliver.19" edges="Grant-Fifth-Oliver Grant-Oliver-Sixth Grant-Sixth-Seventh" />