<?xml version="1.0" encoding="UTF-8"?>
<routes xmlns:xsi="http://www.w3.org/2001/XMLSchema-instance" xsi:noNamespaceSchemaLocation="http://sumo.dlr.de/xsd/routes_file.xsd">

<vType id="noVar" speedFactor="1.0" speedDev="0.0"/>
<route id="route_Grant-Fourth-Forbes.2" edges="Grant-Fourth-Forbes Grant-Fourth-Forbes-2 Grant-Fourth-Forbes-3 Grant-Forbes-Fifth Grant-Fifth-Oliver Grant-Oliver-Sixth Grant-Sixth-Seventh" />
<vehicle type="noVar" depart="27" id="Grant-Fourth-Forbes.2" route="route_Grant-Fourth-Forbes.2" />
<route id="route_Fifth-RHS-Ross.0" edges="Fifth-RHS-Ross Fifth-RHS-Ross-2 Fifth-Ross-Grant Fifth-Ross-Grant-2 Fifth-Grant-WilliamPenn Fifth-WilliamPenn-Smithfield" />
<vehicle type="noVar" depart="489" id="Fifth-RHS-Ross.0" route="route_Fifth-RHS-Ross.0" />
<route id="route_Fifth-RHS-Ross.3" edges="Fifth-RHS-Ross Fifth-RHS-Ross-2 Fifth-Ross-Grant Fifth-Ross-Grant-2 Fifth-Grant-WilliamPenn Fifth-WilliamPenn-Smithfield" />
<vehicle type="noVar" depart="556" id="Fifth-RHS-Ross.3" route="route_Fifth-RHS-Ross.3" />
<route id="route_Ross-Fourth-Forbes.0" edges="Ross-Fourth-Forbes Ross-Fourth-Forbes-2 Forbes-Ross-Grant Forbes-Grant-WilliamPenn WilliamPenn-Forbes-Fourth" />
<vehicle type="noVar" depart="612" id="Ross-Fourth-Forbes.0" route="route_Ross-Fourth-Forbes.0" />
<route id="route_Ross-Fourth-Forbes.2" edges="Ross-Fourth-Forbes Ross-Fourth-Forbes-2 Forbes-Ross-RHS" />
<vehicle type="noVar" depart="709" id="Ross-Fourth-Forbes.2" route="route_Ross-Fourth-Forbes.2" />
<route id="route_Fifth-Smithfield-WilliamPenn.0" edges="Fifth-Smithfield-WilliamPenn Fifth-Smithfield-WilliamPenn-2 Fifth-WilliamPenn-Grant Fifth-Grant-Ross Fifth-Grant-Ross-2 Fifth-Ross-RHS" />
<vehicle type="noVar" depart="845" id="Fifth-Smithfield-WilliamPenn.0" route="route_Fifth-Smithfield-WilliamPenn.0" />
<route id="route_Ross-Seventh-Sixth.5" edges="Ross-Seventh-Sixth Ross-Seventh-Sixth-2 Ross-Sixth-Fifth Fifth-Ross-RHS" />
<vehicle type="noVar" depart="880" id="Ross-Seventh-Sixth.5" route="route_Ross-Seventh-Sixth.5" />
<route id="route_WilliamPenn-Seventh-Sixth.2" edges="WilliamPenn-Seventh-Sixth WilliamPenn-Seventh-Sixth-2 WilliamPenn-Sixth-Oliver Oliver-WilliamPenn-Grant Grant-Oliver-Fifth Grant-Fifth-Forbes Grant-Forbes-Fourth" />
<vehicle type="noVar" depart="964" id="WilliamPenn-Seventh-Sixth.2" route="route_WilliamPenn-Seventh-Sixth.2" />
<route id="route_Ross-Seventh-Sixth.4" edges="Ross-Seventh-Sixth Ross-Seventh-Sixth-2 Sixth-Ross-Grant Grant-Sixth-Seventh" />
<vehicle type="noVar" depart="990" id="Ross-Seventh-Sixth.4" route="route_Ross-Seventh-Sixth.4" />
<route id="route_Sixth-Smithfield-WilliamPenn.0" edges="Sixth-Smithfield-WilliamPenn Sixth-Smithfield-WilliamPenn-2 Sixth-WilliamPenn-Grant Sixth-Grant-Ross Sixth-Ross-RHS" />
<vehicle type="noVar" depart="1017" id="Sixth-Smithfield-WilliamPenn.0" route="route_Sixth-Smithfield-WilliamPenn.0" />
<route id="route_Sixth-RHS-Ross.0" edges="Sixth-RHS-Ross Sixth-RHS-Ross-2 Sixth-Ross-Grant Grant-Sixth-Seventh" />
<vehicle type="noVar" depart="1118" id="Sixth-RHS-Ross.0" route="route_Sixth-RHS-Ross.0" />
<route id="route_Ross-Seventh-Sixth.2" edges="Ross-Seventh-Sixth Ross-Seventh-Sixth-2 Ross-Sixth-Fifth Fifth-Ross-RHS" />
<vehicle type="noVar" depart="1210" id="Ross-Seventh-Sixth.2" route="route_Ross-Seventh-Sixth.2" />
<route id="route_Ross-Fourth-Forbes.4" edges="Ross-Fourth-Forbes Ross-Fourth-Forbes-2 Forbes-Ross-RHS" />
<vehicle type="noVar" depart="1236" id="Ross-Fourth-Forbes.4" route="route_Ross-Fourth-Forbes.4" />
<route id="route_Sixth-RHS-Ross.1" edges="Sixth-RHS-Ross Sixth-RHS-Ross-2 Sixth-Ross-Grant Grant-Sixth-Seventh" />
<vehicle type="noVar" depart="1254" id="Sixth-RHS-Ross.1" route="route_Sixth-RHS-Ross.1" />
<route id="route_Sixth-RHS-Ross.2" edges="Sixth-RHS-Ross Sixth-RHS-Ross-2 Ross-Sixth-Seventh" />
<vehicle type="noVar" depart="1300" id="Sixth-RHS-Ross.2" route="route_Sixth-RHS-Ross.2" />
<route id="route_Grant-Seventh-Sixth.1" edges="Grant-Seventh-Sixth Grant-Seventh-Sixth-2 Grant-Sixth-Oliver Grant-Oliver-Fifth Grant-Fifth-Forbes Forbes-Grant-Ross Forbes-Ross-RHS" />
<vehicle type="noVar" depart="1568" id="Grant-Seventh-Sixth.1" route="route_Grant-Seventh-Sixth.1" />
<route id="route_Grant-Seventh-Sixth.3" edges="Grant-Seventh-Sixth Grant-Seventh-Sixth-2 Grant-Sixth-Oliver Grant-Oliver-Fifth Grant-Fifth-Forbes Grant-Forbes-Fourth" />
<vehicle type="noVar" depart="1669" id="Grant-Seventh-Sixth.3" route="route_Grant-Seventh-Sixth.3" />
<route id="route_Grant-Fourth-Forbes.3" edges="Grant-Fourth-Forbes Grant-Fourth-Forbes-2 Grant-Fourth-Forbes-3 Forbes-Grant-WilliamPenn WilliamPenn-Forbes-Fourth" />
<vehicle type="noVar" depart="1758" id="Grant-Fourth-Forbes.3" route="route_Grant-Fourth-Forbes.3" />
<route id="route_Sixth-Smithfield-WilliamPenn.2" edges="Sixth-Smithfield-WilliamPenn Sixth-Smithfield-WilliamPenn-2 Sixth-WilliamPenn-Grant Sixth-Grant-Ross Ross-Sixth-Fifth Ross-Fifth-Forbes Ross-Forbes-Fourth" />
<vehicle type="noVar" depart="1910" id="Sixth-Smithfield-WilliamPenn.2" route="route_Sixth-Smithfield-WilliamPenn.2" />
<route id="route_Sixth-RHS-Ross.3" edges="Sixth-RHS-Ross Sixth-RHS-Ross-2 Sixth-Ross-Grant Grant-Sixth-Oliver Grant-Oliver-Fifth Grant-Fifth-Forbes Grant-Forbes-Fourth" />
<vehicle type="noVar" depart="2138" id="Sixth-RHS-Ross.3" route="route_Sixth-RHS-Ross.3" />
<route id="route_Grant-Seventh-Sixth.0" edges="Grant-Seventh-Sixth Grant-Seventh-Sixth-2 Grant-Sixth-Oliver Grant-Oliver-Fifth Grant-Fifth-Forbes Grant-Forbes-Fourth" />
<vehicle type="noVar" depart="2145" id="Grant-Seventh-Sixth.0" route="route_Grant-Seventh-Sixth.0" />
<route id="route_Fifth-RHS-Ross.2" edges="Fifth-RHS-Ross Fifth-RHS-Ross-2 Fifth-Ross-Grant Fifth-Ross-Grant-2 Grant-Fifth-Forbes Grant-Forbes-Fourth" />
<vehicle type="noVar" depart="2265" id="Fifth-RHS-Ross.2" route="route_Fifth-RHS-Ross.2" />
<route id="route_Oliver-Smithfield-WilliamPenn.1" edges="Oliver-Smithfield-WilliamPenn Oliver-Smithfield-WilliamPenn-2 Oliver-WilliamPenn-Grant Grant-Oliver-Sixth Grant-Sixth-Seventh" />
<vehicle type="noVar" depart="2290" id="Oliver-Smithfield-WilliamPenn.1" route="route_Oliver-Smithfield-WilliamPenn.1" />
<route id="route_Grant-Seventh-Sixth.4" edges="Grant-Seventh-Sixth Grant-Seventh-Sixth-2 Grant-Sixth-Oliver Grant-Oliver-Fifth Fifth-Grant-WilliamPenn Fifth-WilliamPenn-Smithfield" />
<vehicle type="noVar" depart="2331" id="Grant-Seventh-Sixth.4" route="route_Grant-Seventh-Sixth.4" />
<route id="route_Sixth-RHS-Ross.4" edges="Sixth-RHS-Ross Sixth-RHS-Ross-2 Sixth-Ross-Grant Grant-Sixth-Seventh" />
<vehicle type="noVar" depart="2336" id="Sixth-RHS-Ross.4" route="route_Sixth-RHS-Ross.4" />
<route id="route_Forbes-RHS-Ross.0" edges="Forbes-RHS-Ross Forbes-RHS-Ross-2 Ross-Forbes-Fourth" />
<vehicle type="noVar" depart="2337" id="Forbes-RHS-Ross.0" route="route_Forbes-RHS-Ross.0" />
<route id="route_Ross-Fourth-Forbes.3" edges="Ross-Fourth-Forbes Ross-Fourth-Forbes-2 Ross-Forbes-Fifth Ross-Fifth-Sixth Ross-Sixth-Seventh" />
<vehicle type="noVar" depart="2342" id="Ross-Fourth-Forbes.3" route="route_Ross-Fourth-Forbes.3" />
<route id="route_Oliver-Smithfield-WilliamPenn.2" edges="Oliver-Smithfield-WilliamPenn Oliver-Smithfield-WilliamPenn-2 WilliamPenn-Oliver-Fifth WilliamPenn-Fifth-Forbes WilliamPenn-Forbes-Fourth" />
<vehicle type="noVar" depart="2405" id="Oliver-Smithfield-WilliamPenn.2" route="route_Oliver-Smithfield-WilliamPenn.2" />
<route id="route_Grant-Fourth-Forbes.4" edges="Grant-Fourth-Forbes Grant-Fourth-Forbes-2 Grant-Fourth-Forbes-3 Grant-Forbes-Fifth Grant-Fifth-Oliver Grant-Oliver-Sixth Grant-Sixth-Seventh" />
<vehicle type="noVar" depart="2413" id="Grant-Fourth-Forbes.4" route="route_Grant-Fourth-Forbes.4" />
<route id="route_Ross-Seventh-Sixth.0" edges="Ross-Seventh-Sixth Ross-Seventh-Sixth-2 Sixth-Ross-Grant Grant-Sixth-Oliver Grant-Oliver-Fifth Grant-Fifth-Forbes Grant-Forbes-Fourth" />
<vehicle type="noVar" depart="2497" id="Ross-Seventh-Sixth.0" route="route_Ross-Seventh-Sixth.0" />
<route id="route_Fifth-RHS-Ross.1" edges="Fifth-RHS-Ross Fifth-RHS-Ross-2 Fifth-Ross-Grant Fifth-Ross-Grant-2 Grant-Fifth-Forbes Grant-Forbes-Fourth" />
<vehicle type="noVar" depart="2508" id="Fifth-RHS-Ross.1" route="route_Fifth-RHS-Ross.1" />
<route id="route_Sixth-Smithfield-WilliamPenn.3" edges="Sixth-Smithfield-WilliamPenn Sixth-Smithfield-WilliamPenn-2 WilliamPenn-Sixth-Oliver Oliver-WilliamPenn-Grant Grant-Oliver-Sixth Grant-Sixth-Seventh" />
<vehicle type="noVar" depart="2559" id="Sixth-Smithfield-WilliamPenn.3" route="route_Sixth-Smithfield-WilliamPenn.3" />
<route id="route_Forbes-RHS-Ross.3" edges="Forbes-RHS-Ross Forbes-RHS-Ross-2 Ross-Forbes-Fourth" />
<vehicle type="noVar" depart="2579" id="Forbes-RHS-Ross.3" route="route_Forbes-RHS-Ross.3" />
<route id="route_Ross-Fourth-Forbes.1" edges="Ross-Fourth-Forbes Ross-Fourth-Forbes-2 Forbes-Ross-RHS" />
<vehicle type="noVar" depart="2655" id="Ross-Fourth-Forbes.1" route="route_Ross-Fourth-Forbes.1" />
<route id="route_Sixth-Smithfield-WilliamPenn.1" edges="Sixth-Smithfield-WilliamPenn Sixth-Smithfield-WilliamPenn-2 Sixth-WilliamPenn-Grant Sixth-Grant-Ross Sixth-Ross-RHS" />
<vehicle type="noVar" depart="2770" id="Sixth-Smithfield-WilliamPenn.1" route="route_Sixth-Smithfield-WilliamPenn.1" />
<route id="route_WilliamPenn-Seventh-Sixth.1" edges="WilliamPenn-Seventh-Sixth WilliamPenn-Seventh-Sixth-2 WilliamPenn-Sixth-Oliver Oliver-WilliamPenn-Smithfield" />
<vehicle type="noVar" depart="2818" id="WilliamPenn-Seventh-Sixth.1" route="route_WilliamPenn-Seventh-Sixth.1" />
<route id="route_Grant-Fourth-Forbes.0" edges="Grant-Fourth-Forbes Grant-Fourth-Forbes-2 Grant-Fourth-Forbes-3 Forbes-Grant-WilliamPenn Forbes-WilliamPenn-Smithfield" />
<vehicle type="noVar" depart="2847" id="Grant-Fourth-Forbes.0" route="route_Grant-Fourth-Forbes.0" />
<route id="route_Grant-Seventh-Sixth.2" edges="Grant-Seventh-Sixth Grant-Seventh-Sixth-2 Grant-Sixth-Oliver Grant-Oliver-Fifth Fifth-Grant-Ross Fifth-Grant-Ross-2 Fifth-Ross-RHS" />
<vehicle type="noVar" depart="2928" id="Grant-Seventh-Sixth.2" route="route_Grant-Seventh-Sixth.2" />
<route id="route_Forbes-RHS-Ross.4" edges="Forbes-RHS-Ross Forbes-RHS-Ross-2 Ross-Forbes-Fourth" />
<vehicle type="noVar" depart="3115" id="Forbes-RHS-Ross.4" route="route_Forbes-RHS-Ross.4" />
<route id="route_Oliver-Smithfield-WilliamPenn.0" edges="Oliver-Smithfield-WilliamPenn Oliver-Smithfield-WilliamPenn-2 Oliver-WilliamPenn-Grant Grant-Oliver-Sixth Grant-Sixth-Seventh" />
<vehicle type="noVar" depart="3339" id="Oliver-Smithfield-WilliamPenn.0" route="route_Oliver-Smithfield-WilliamPenn.0" />
<route id="route_Grant-Seventh-Sixth.5" edges="Grant-Seventh-Sixth Grant-Seventh-Sixth-2 Grant-Sixth-Oliver Grant-Oliver-Fifth Grant-Fifth-Forbes Grant-Forbes-Fourth" />
<vehicle type="noVar" depart="3395" id="Grant-Seventh-Sixth.5" route="route_Grant-Seventh-Sixth.5" />
<route id="route_WilliamPenn-Seventh-Sixth.0" edges="WilliamPenn-Seventh-Sixth WilliamPenn-Seventh-Sixth-2 Sixth-WilliamPenn-Smithfield" />
<vehicle type="noVar" depart="3447" id="WilliamPenn-Seventh-Sixth.0" route="route_WilliamPenn-Seventh-Sixth.0" />
<route id="route_Forbes-RHS-Ross.1" edges="Forbes-RHS-Ross Forbes-RHS-Ross-2 Ross-Forbes-Fourth" />
<vehicle type="noVar" depart="3519" id="Forbes-RHS-Ross.1" route="route_Forbes-RHS-Ross.1" />
<route id="route_Ross-Seventh-Sixth.3" edges="Ross-Seventh-Sixth Ross-Seventh-Sixth-2 Sixth-Ross-Grant Grant-Sixth-Seventh" />
<vehicle type="noVar" depart="3521" id="Ross-Seventh-Sixth.3" route="route_Ross-Seventh-Sixth.3" />
<route id="route_Ross-Seventh-Sixth.1" edges="Ross-Seventh-Sixth Ross-Seventh-Sixth-2 Ross-Sixth-Fifth Ross-Fifth-Forbes Ross-Forbes-Fourth" />
<vehicle type="noVar" depart="3523" id="Ross-Seventh-Sixth.1" route="route_Ross-Seventh-Sixth.1" />
<route id="route_Grant-Fourth-Forbes.1" edges="Grant-Fourth-Forbes Grant-Fourth-Forbes-2 Grant-Fourth-Forbes-3 Grant-Forbes-Fifth Fifth-Grant-WilliamPenn Fifth-WilliamPenn-Smithfield" />
<vehicle type="noVar" depart="3584" id="Grant-Fourth-Forbes.1" route="route_Grant-Fourth-Forbes.1" />
<route id="route_Forbes-RHS-Ross.2" edges="Forbes-RHS-Ross Forbes-RHS-Ross-2 Forbes-Ross-Grant Forbes-Grant-WilliamPenn WilliamPenn-Forbes-Fourth" />
<vehicle type="noVar" depart="3585" id="Forbes-RHS-Ross.2" route="route_Forbes-RHS-Ross.2" />
</routes>
