<?xml version="1.0" encoding="UTF-8"?>
<routes xmlns:xsi="http://www.w3.org/2001/XMLSchema-instance" xsi:noNamespaceSchemaLocation="http://sumo.dlr.de/xsd/routes_file.xsd">

<vType id="noVar" speedFactor="1.0" speedDev="0.0"/>
<trip type="noVar" depart="0" id="Grant-Fourth-Forbes.152" from="Grant-Fourth-Forbes" to="Forbes-WilliamPenn-Smithfield" />
<trip type="noVar" depart="1" id="Grant-Seventh-Sixth.479" from="Grant-Seventh-Sixth" to="Forbes-WilliamPenn-Smithfield" />
<trip type="noVar" depart="1" id="Grant-Fifth-Oliver.3" from="Grant-Fifth-Oliver" to="Grant-Sixth-Seventh" />
<trip type="noVar" depart="2" id="Forbes-Smithfield-WilliamPenn.23" from="Forbes-Smithfield-WilliamPenn" to="WilliamPenn-Forbes-Fourth" />
<trip type="noVar" depart="2" id="Ross-Fourth-Forbes.359" from="Ross-Fourth-Forbes" to="Forbes-Ross-RHS" />
<trip type="noVar" depart="3" id="Oliver-Smithfield-WilliamPenn.168" from="Oliver-Smithfield-WilliamPenn" to="Grant-Forbes-Fourth" />
<trip type="noVar" depart="4" id="WilliamPenn-Seventh-Sixth.165" from="WilliamPenn-Seventh-Sixth" to="Sixth-WilliamPenn-Smithfield" />
<trip type="noVar" depart="4" id="Fifth-RHS-Ross.175" from="Fifth-RHS-Ross" to="Fifth-WilliamPenn-Smithfield" />
<trip type="noVar" depart="8" id="Oliver-Smithfield-WilliamPenn.132" from="Oliver-Smithfield-WilliamPenn" to="Fifth-WilliamPenn-Smithfield" />
<trip type="noVar" depart="9" id="WilliamPenn-Seventh-Sixth.199" from="WilliamPenn-Seventh-Sixth" to="WilliamPenn-Forbes-Fourth" />
<trip type="noVar" depart="9" id="Ross-Fourth-Forbes.40" from="Ross-Fourth-Forbes" to="Fifth-WilliamPenn-Smithfield" />
<trip type="noVar" depart="10" id="Oliver-Smithfield-WilliamPenn.268" from="Oliver-Smithfield-WilliamPenn" to="WilliamPenn-Forbes-Fourth" />
<trip type="noVar" depart="10" id="Forbes-RHS-Ross.1" from="Forbes-RHS-Ross" to="WilliamPenn-Forbes-Fourth" />
<trip type="noVar" depart="11" id="Grant-Seventh-Sixth.126" from="Grant-Seventh-Sixth" to="Fifth-Ross-RHS" />
<trip type="noVar" depart="11" id="Fifth-RHS-Ross.179" from="Fifth-RHS-Ross" to="Fifth-WilliamPenn-Smithfield" />
<trip type="noVar" depart="12" id="Grant-Fourth-Forbes.171" from="Grant-Fourth-Forbes" to="Fifth-WilliamPenn-Smithfield" />
<trip type="noVar" depart="12" id="Sixth-RHS-Ross.99" from="Sixth-RHS-Ross" to="Grant-Sixth-Seventh" />
<trip type="noVar" depart="15" id="Grant-Seventh-Sixth.388" from="Grant-Seventh-Sixth" to="Sixth-Ross-RHS" />
<trip type="noVar" depart="19" id="Grant-Fourth-Forbes.44" from="Grant-Fourth-Forbes" to="Grant-Sixth-Seventh" />
<trip type="noVar" depart="20" id="Ross-Fourth-Forbes.25" from="Ross-Fourth-Forbes" to="WilliamPenn-Forbes-Fourth" />
<trip type="noVar" depart="21" id="Sixth-RHS-Ross.225" from="Sixth-RHS-Ross" to="Ross-Forbes-Fourth" />
<trip type="noVar" depart="22" id="Forbes-Smithfield-WilliamPenn.35" from="Forbes-Smithfield-WilliamPenn" to="WilliamPenn-Forbes-Fourth" />
<trip type="noVar" depart="23" id="Grant-Fourth-Forbes.213" from="Grant-Fourth-Forbes" to="Grant-Sixth-Seventh" />
<trip type="noVar" depart="23" id="Ross-Fourth-Forbes.217" from="Ross-Fourth-Forbes" to="Ross-Sixth-Seventh" />
<trip type="noVar" depart="23" id="Ross-Fourth-Forbes.364" from="Ross-Fourth-Forbes" to="Ross-Sixth-Seventh" />
<trip type="noVar" depart="24" id="Forbes-RHS-Ross.89" from="Forbes-RHS-Ross" to="Grant-Forbes-Fourth" />
<trip type="noVar" depart="27" id="Oliver-Smithfield-WilliamPenn.248" from="Oliver-Smithfield-WilliamPenn" to="WilliamPenn-Forbes-Fourth" />
<trip type="noVar" depart="27" id="Grant-Fourth-Forbes.30" from="Grant-Fourth-Forbes" to="Grant-Sixth-Seventh" />
<trip type="noVar" depart="27" id="Forbes-Smithfield-WilliamPenn.10" from="Forbes-Smithfield-WilliamPenn" to="WilliamPenn-Forbes-Fourth" />
<trip type="noVar" depart="27" id="Sixth-RHS-Ross.375" from="Sixth-RHS-Ross" to="Grant-Sixth-Seventh" />
<trip type="noVar" depart="28" id="Oliver-Smithfield-WilliamPenn.207" from="Oliver-Smithfield-WilliamPenn" to="Sixth-Ross-RHS" />
<trip type="noVar" depart="28" id="Grant-Fourth-Forbes.158" from="Grant-Fourth-Forbes" to="Grant-Sixth-Seventh" />
<trip type="noVar" depart="28" id="Grant-Fourth-Forbes.280" from="Grant-Fourth-Forbes" to="Forbes-WilliamPenn-Smithfield" />
<trip type="noVar" depart="28" id="Ross-Fourth-Forbes.72" from="Ross-Fourth-Forbes" to="Grant-Forbes-Fourth" />
<trip type="noVar" depart="29" id="Grant-Fourth-Forbes.295" from="Grant-Fourth-Forbes" to="Grant-Sixth-Seventh" />
<trip type="noVar" depart="29" id="Ross-Fourth-Forbes.245" from="Ross-Fourth-Forbes" to="Ross-Sixth-Seventh" />
<trip type="noVar" depart="30" id="Fifth-RHS-Ross.95" from="Fifth-RHS-Ross" to="Fifth-WilliamPenn-Smithfield" />
<trip type="noVar" depart="31" id="Sixth-Smithfield-WilliamPenn.134" from="Sixth-Smithfield-WilliamPenn" to="Sixth-Ross-RHS" />
<trip type="noVar" depart="31" id="Grant-Fourth-Forbes.101" from="Grant-Fourth-Forbes" to="WilliamPenn-Forbes-Fourth" />
<trip type="noVar" depart="32" id="Fifth-Smithfield-WilliamPenn.54" from="Fifth-Smithfield-WilliamPenn" to="Forbes-WilliamPenn-Smithfield" />
<trip type="noVar" depart="32" id="Forbes-RHS-Ross.232" from="Forbes-RHS-Ross" to="Ross-Forbes-Fourth" />
<trip type="noVar" depart="33" id="Ross-Fourth-Forbes.309" from="Ross-Fourth-Forbes" to="Forbes-Ross-RHS" />
<trip type="noVar" depart="37" id="Oliver-Smithfield-WilliamPenn.10" from="Oliver-Smithfield-WilliamPenn" to="Grant-Sixth-Seventh" />
<trip type="noVar" depart="38" id="Fifth-Smithfield-WilliamPenn.79" from="Fifth-Smithfield-WilliamPenn" to="Fifth-Ross-RHS" />
<trip type="noVar" depart="38" id="Ross-Seventh-Sixth.79" from="Ross-Seventh-Sixth" to="Forbes-Ross-RHS" />
<trip type="noVar" depart="38" id="Fifth-RHS-Ross.25" from="Fifth-RHS-Ross" to="Grant-Forbes-Fourth" />
<trip type="noVar" depart="38" id="Fifth-RHS-Ross.45" from="Fifth-RHS-Ross" to="Ross-Forbes-Fourth" />
<trip type="noVar" depart="38" id="Forbes-RHS-Ross.57" from="Forbes-RHS-Ross" to="WilliamPenn-Forbes-Fourth" />
<trip type="noVar" depart="38" id="Forbes-RHS-Ross.281" from="Forbes-RHS-Ross" to="WilliamPenn-Forbes-Fourth" />
<trip type="noVar" depart="39" id="Grant-Seventh-Sixth.79" from="Grant-Seventh-Sixth" to="Fifth-Ross-RHS" />
<trip type="noVar" depart="40" id="Ross-Seventh-Sixth.142" from="Ross-Seventh-Sixth" to="Sixth-Ross-RHS" />
<trip type="noVar" depart="44" id="Grant-Fourth-Forbes.16" from="Grant-Fourth-Forbes" to="Grant-Sixth-Seventh" />
<trip type="noVar" depart="44" id="Forbes-RHS-Ross.414" from="Forbes-RHS-Ross" to="Forbes-WilliamPenn-Smithfield" />
<trip type="noVar" depart="45" id="Ross-Seventh-Sixth.5" from="Ross-Seventh-Sixth" to="Sixth-WilliamPenn-Smithfield" />
<trip type="noVar" depart="45" id="Sixth-RHS-Ross.67" from="Sixth-RHS-Ross" to="Oliver-WilliamPenn-Smithfield" />
<trip type="noVar" depart="45" id="Fifth-RHS-Ross.308" from="Fifth-RHS-Ross" to="Fifth-WilliamPenn-Smithfield" />
<trip type="noVar" depart="45" id="Forbes-RHS-Ross.31" from="Forbes-RHS-Ross" to="Grant-Forbes-Fourth" />
<trip type="noVar" depart="46" id="Grant-Seventh-Sixth.415" from="Grant-Seventh-Sixth" to="Grant-Forbes-Fourth" />
<trip type="noVar" depart="47" id="Ross-Seventh-Sixth.470" from="Ross-Seventh-Sixth" to="Sixth-Ross-RHS" />
<trip type="noVar" depart="48" id="Oliver-Smithfield-WilliamPenn.190" from="Oliver-Smithfield-WilliamPenn" to="Grant-Sixth-Seventh" />
<trip type="noVar" depart="48" id="Grant-Fourth-Forbes.131" from="Grant-Fourth-Forbes" to="Forbes-WilliamPenn-Smithfield" />
<trip type="noVar" depart="48" id="Forbes-Smithfield-WilliamPenn.13" from="Forbes-Smithfield-WilliamPenn" to="WilliamPenn-Forbes-Fourth" />
<trip type="noVar" depart="48" id="Fifth-RHS-Ross.222" from="Fifth-RHS-Ross" to="Fifth-WilliamPenn-Smithfield" />
<trip type="noVar" depart="48" id="Forbes-RHS-Ross.125" from="Forbes-RHS-Ross" to="Grant-Forbes-Fourth" />
<trip type="noVar" depart="49" id="Grant-Seventh-Sixth.315" from="Grant-Seventh-Sixth" to="Grant-Forbes-Fourth" />
<trip type="noVar" depart="49" id="Ross-Seventh-Sixth.173" from="Ross-Seventh-Sixth" to="Grant-Sixth-Seventh" />
<trip type="noVar" depart="49" id="Sixth-RHS-Ross.61" from="Sixth-RHS-Ross" to="Ross-Sixth-Seventh" />
<trip type="noVar" depart="52" id="Ross-Fourth-Forbes.115" from="Ross-Fourth-Forbes" to="Forbes-Ross-RHS" />
<trip type="noVar" depart="52" id="Ross-Fourth-Forbes.176" from="Ross-Fourth-Forbes" to="Sixth-Ross-RHS" />
<trip type="noVar" depart="53" id="Grant-Fourth-Forbes.462" from="Grant-Fourth-Forbes" to="WilliamPenn-Forbes-Fourth" />
<trip type="noVar" depart="54" id="Fifth-RHS-Ross.189" from="Fifth-RHS-Ross" to="Grant-Forbes-Fourth" />
<trip type="noVar" depart="54" id="Forbes-RHS-Ross.122" from="Forbes-RHS-Ross" to="Grant-Forbes-Fourth" />
<trip type="noVar" depart="56" id="Grant-Fifth-Oliver.6" from="Grant-Fifth-Oliver" to="Sixth-Ross-RHS" />
<trip type="noVar" depart="56" id="Grant-Fourth-Forbes.205" from="Grant-Fourth-Forbes" to="Forbes-Ross-RHS" />
<trip type="noVar" depart="58" id="Oliver-Smithfield-WilliamPenn.152" from="Oliver-Smithfield-WilliamPenn" to="Fifth-WilliamPenn-Smithfield" />
<trip type="noVar" depart="59" id="Sixth-Smithfield-WilliamPenn.275" from="Sixth-Smithfield-WilliamPenn" to="WilliamPenn-Forbes-Fourth" />
<trip type="noVar" depart="59" id="Fifth-RHS-Ross.258" from="Fifth-RHS-Ross" to="WilliamPenn-Forbes-Fourth" />
<trip type="noVar" depart="61" id="Grant-Seventh-Sixth.236" from="Grant-Seventh-Sixth" to="Grant-Forbes-Fourth" />
<trip type="noVar" depart="61" id="Grant-Seventh-Sixth.294" from="Grant-Seventh-Sixth" to="Grant-Forbes-Fourth" />
<trip type="noVar" depart="62" id="Grant-Fourth-Forbes.292" from="Grant-Fourth-Forbes" to="Forbes-Ross-RHS" />
<trip type="noVar" depart="63" id="Sixth-RHS-Ross.111" from="Sixth-RHS-Ross" to="Sixth-WilliamPenn-Smithfield" />
<trip type="noVar" depart="63" id="Sixth-RHS-Ross.170" from="Sixth-RHS-Ross" to="Grant-Forbes-Fourth" />
<trip type="noVar" depart="65" id="Grant-Seventh-Sixth.414" from="Grant-Seventh-Sixth" to="Ross-Sixth-Seventh" />
<trip type="noVar" depart="65" id="Oliver-Smithfield-WilliamPenn.40" from="Oliver-Smithfield-WilliamPenn" to="WilliamPenn-Forbes-Fourth" />
<trip type="noVar" depart="66" id="Grant-Fourth-Forbes.126" from="Grant-Fourth-Forbes" to="Grant-Sixth-Seventh" />
<trip type="noVar" depart="67" id="Grant-Seventh-Sixth.122" from="Grant-Seventh-Sixth" to="Grant-Forbes-Fourth" />
<trip type="noVar" depart="68" id="Grant-Fourth-Forbes.84" from="Grant-Fourth-Forbes" to="Grant-Forbes-Fourth" />
<trip type="noVar" depart="68" id="Fifth-RHS-Ross.86" from="Fifth-RHS-Ross" to="Fifth-WilliamPenn-Smithfield" />
<trip type="noVar" depart="69" id="Grant-Seventh-Sixth.235" from="Grant-Seventh-Sixth" to="Oliver-WilliamPenn-Smithfield" />
<trip type="noVar" depart="71" id="Grant-Seventh-Sixth.210" from="Grant-Seventh-Sixth" to="Sixth-Ross-RHS" />
<trip type="noVar" depart="71" id="Grant-Fourth-Forbes.297" from="Grant-Fourth-Forbes" to="Forbes-WilliamPenn-Smithfield" />
<trip type="noVar" depart="72" id="Oliver-Smithfield-WilliamPenn.20" from="Oliver-Smithfield-WilliamPenn" to="Grant-Sixth-Seventh" />
<trip type="noVar" depart="74" id="Grant-Seventh-Sixth.486" from="Grant-Seventh-Sixth" to="Grant-Forbes-Fourth" />
<trip type="noVar" depart="75" id="Grant-Seventh-Sixth.261" from="Grant-Seventh-Sixth" to="Grant-Forbes-Fourth" />
<trip type="noVar" depart="75" id="Sixth-RHS-Ross.193" from="Sixth-RHS-Ross" to="Grant-Sixth-Seventh" />
<trip type="noVar" depart="76" id="Grant-Seventh-Sixth.472" from="Grant-Seventh-Sixth" to="Forbes-Ross-RHS" />
<trip type="noVar" depart="76" id="Ross-Seventh-Sixth.383" from="Ross-Seventh-Sixth" to="Sixth-Ross-RHS" />
<trip type="noVar" depart="76" id="Sixth-RHS-Ross.194" from="Sixth-RHS-Ross" to="Ross-Sixth-Seventh" />
<trip type="noVar" depart="77" id="Grant-Seventh-Sixth.501" from="Grant-Seventh-Sixth" to="WilliamPenn-Forbes-Fourth" />
<trip type="noVar" depart="77" id="Grant-Fourth-Forbes.305" from="Grant-Fourth-Forbes" to="Grant-Sixth-Seventh" />
<trip type="noVar" depart="79" id="Oliver-Smithfield-WilliamPenn.237" from="Oliver-Smithfield-WilliamPenn" to="Grant-Forbes-Fourth" />
<trip type="noVar" depart="79" id="Forbes-RHS-Ross.245" from="Forbes-RHS-Ross" to="Forbes-WilliamPenn-Smithfield" />
<trip type="noVar" depart="80" id="Grant-Seventh-Sixth.283" from="Grant-Seventh-Sixth" to="Grant-Forbes-Fourth" />
<trip type="noVar" depart="80" id="Ross-Seventh-Sixth.158" from="Ross-Seventh-Sixth" to="Grant-Sixth-Seventh" />
<trip type="noVar" depart="80" id="Sixth-RHS-Ross.85" from="Sixth-RHS-Ross" to="Sixth-WilliamPenn-Smithfield" />
<trip type="noVar" depart="81" id="Oliver-Smithfield-WilliamPenn.70" from="Oliver-Smithfield-WilliamPenn" to="Grant-Sixth-Seventh" />
<trip type="noVar" depart="81" id="Ross-Seventh-Sixth.56" from="Ross-Seventh-Sixth" to="Sixth-Ross-RHS" />
<trip type="noVar" depart="82" id="Grant-Seventh-Sixth.108" from="Grant-Seventh-Sixth" to="Grant-Forbes-Fourth" />
<trip type="noVar" depart="82" id="Grant-Fourth-Forbes.204" from="Grant-Fourth-Forbes" to="Forbes-Ross-RHS" />
<trip type="noVar" depart="82" id="Ross-Seventh-Sixth.481" from="Ross-Seventh-Sixth" to="Fifth-Ross-RHS" />
<trip type="noVar" depart="83" id="Oliver-Smithfield-WilliamPenn.285" from="Oliver-Smithfield-WilliamPenn" to="Grant-Sixth-Seventh" />
<trip type="noVar" depart="84" id="Grant-Fifth-Oliver.5" from="Grant-Fifth-Oliver" to="Grant-Sixth-Seventh" />
<trip type="noVar" depart="84" id="Grant-Fourth-Forbes.71" from="Grant-Fourth-Forbes" to="Fifth-Ross-RHS" />
<trip type="noVar" depart="84" id="Ross-Seventh-Sixth.288" from="Ross-Seventh-Sixth" to="Forbes-WilliamPenn-Smithfield" />
<trip type="noVar" depart="84" id="Sixth-RHS-Ross.40" from="Sixth-RHS-Ross" to="Ross-Sixth-Seventh" />
<trip type="noVar" depart="85" id="Sixth-Smithfield-WilliamPenn.258" from="Sixth-Smithfield-WilliamPenn" to="Sixth-Ross-RHS" />
<trip type="noVar" depart="88" id="Grant-Seventh-Sixth.37" from="Grant-Seventh-Sixth" to="Grant-Forbes-Fourth" />
<trip type="noVar" depart="88" id="Sixth-Smithfield-WilliamPenn.159" from="Sixth-Smithfield-WilliamPenn" to="Ross-Sixth-Seventh" />
<trip type="noVar" depart="88" id="Sixth-RHS-Ross.232" from="Sixth-RHS-Ross" to="Grant-Forbes-Fourth" />
<trip type="noVar" depart="88" id="Ross-Fourth-Forbes.194" from="Ross-Fourth-Forbes" to="Fifth-Ross-RHS" />
<trip type="noVar" depart="90" id="Grant-Seventh-Sixth.64" from="Grant-Seventh-Sixth" to="Grant-Forbes-Fourth" />
<trip type="noVar" depart="90" id="Sixth-RHS-Ross.42" from="Sixth-RHS-Ross" to="Sixth-WilliamPenn-Smithfield" />
<trip type="noVar" depart="90" id="Ross-Fourth-Forbes.36" from="Ross-Fourth-Forbes" to="Sixth-Ross-RHS" />
<trip type="noVar" depart="91" id="Grant-Seventh-Sixth.200" from="Grant-Seventh-Sixth" to="Sixth-Ross-RHS" />
<trip type="noVar" depart="91" id="Sixth-RHS-Ross.341" from="Sixth-RHS-Ross" to="Sixth-WilliamPenn-Smithfield" />
<trip type="noVar" depart="91" id="Fifth-RHS-Ross.195" from="Fifth-RHS-Ross" to="Fifth-WilliamPenn-Smithfield" />
<trip type="noVar" depart="93" id="Grant-Fourth-Forbes.221" from="Grant-Fourth-Forbes" to="Sixth-WilliamPenn-Smithfield" />
<trip type="noVar" depart="93" id="Ross-Seventh-Sixth.461" from="Ross-Seventh-Sixth" to="Grant-Forbes-Fourth" />
<trip type="noVar" depart="95" id="Sixth-Smithfield-WilliamPenn.38" from="Sixth-Smithfield-WilliamPenn" to="Grant-Forbes-Fourth" />
<trip type="noVar" depart="96" id="Ross-Fourth-Forbes.65" from="Ross-Fourth-Forbes" to="Sixth-WilliamPenn-Smithfield" />
<trip type="noVar" depart="97" id="Fifth-RHS-Ross.187" from="Fifth-RHS-Ross" to="Fifth-WilliamPenn-Smithfield" />
<trip type="noVar" depart="99" id="WilliamPenn-Seventh-Sixth.43" from="WilliamPenn-Seventh-Sixth" to="Sixth-WilliamPenn-Smithfield" />
<trip type="noVar" depart="99" id="Sixth-Smithfield-WilliamPenn.133" from="Sixth-Smithfield-WilliamPenn" to="Sixth-Ross-RHS" />
<trip type="noVar" depart="99" id="Fifth-Smithfield-WilliamPenn.50" from="Fifth-Smithfield-WilliamPenn" to="Grant-Sixth-Seventh" />
<trip type="noVar" depart="99" id="Ross-Seventh-Sixth.343" from="Ross-Seventh-Sixth" to="Ross-Forbes-Fourth" />
<trip type="noVar" depart="99" id="Forbes-RHS-Ross.300" from="Forbes-RHS-Ross" to="WilliamPenn-Forbes-Fourth" />
<trip type="noVar" depart="100" id="Oliver-Smithfield-WilliamPenn.241" from="Oliver-Smithfield-WilliamPenn" to="Ross-Sixth-Seventh" />
<trip type="noVar" depart="102" id="Forbes-RHS-Ross.11" from="Forbes-RHS-Ross" to="WilliamPenn-Forbes-Fourth" />
<trip type="noVar" depart="103" id="Sixth-Smithfield-WilliamPenn.127" from="Sixth-Smithfield-WilliamPenn" to="Sixth-Ross-RHS" />
<trip type="noVar" depart="105" id="Ross-Fourth-Forbes.75" from="Ross-Fourth-Forbes" to="Ross-Sixth-Seventh" />
<trip type="noVar" depart="106" id="WilliamPenn-Seventh-Sixth.237" from="WilliamPenn-Seventh-Sixth" to="Oliver-WilliamPenn-Smithfield" />
<trip type="noVar" depart="106" id="Ross-Seventh-Sixth.20" from="Ross-Seventh-Sixth" to="Sixth-WilliamPenn-Smithfield" />
<trip type="noVar" depart="106" id="Fifth-RHS-Ross.211" from="Fifth-RHS-Ross" to="Grant-Forbes-Fourth" />
<trip type="noVar" depart="109" id="Grant-Seventh-Sixth.330" from="Grant-Seventh-Sixth" to="Sixth-Ross-RHS" />
<trip type="noVar" depart="109" id="Sixth-Smithfield-WilliamPenn.138" from="Sixth-Smithfield-WilliamPenn" to="Sixth-Ross-RHS" />
<trip type="noVar" depart="109" id="Oliver-Smithfield-WilliamPenn.291" from="Oliver-Smithfield-WilliamPenn" to="Grant-Sixth-Seventh" />
<trip type="noVar" depart="110" id="Sixth-Smithfield-WilliamPenn.302" from="Sixth-Smithfield-WilliamPenn" to="Ross-Sixth-Seventh" />
<trip type="noVar" depart="110" id="Ross-Seventh-Sixth.148" from="Ross-Seventh-Sixth" to="Sixth-Ross-RHS" />
<trip type="noVar" depart="111" id="Ross-Fourth-Forbes.128" from="Ross-Fourth-Forbes" to="Ross-Forbes-Fourth" />
<trip type="noVar" depart="112" id="Forbes-RHS-Ross.148" from="Forbes-RHS-Ross" to="Grant-Forbes-Fourth" />
<trip type="noVar" depart="114" id="Oliver-Smithfield-WilliamPenn.177" from="Oliver-Smithfield-WilliamPenn" to="Forbes-WilliamPenn-Smithfield" />
<trip type="noVar" depart="116" id="WilliamPenn-Seventh-Sixth.132" from="WilliamPenn-Seventh-Sixth" to="Sixth-WilliamPenn-Smithfield" />
<trip type="noVar" depart="117" id="WilliamPenn-Seventh-Sixth.193" from="WilliamPenn-Seventh-Sixth" to="Sixth-Ross-RHS" />
<trip type="noVar" depart="117" id="Fifth-RHS-Ross.306" from="Fifth-RHS-Ross" to="Sixth-Ross-RHS" />
<trip type="noVar" depart="119" id="Forbes-RHS-Ross.348" from="Forbes-RHS-Ross" to="WilliamPenn-Forbes-Fourth" />
<trip type="noVar" depart="120" id="Grant-Seventh-Sixth.139" from="Grant-Seventh-Sixth" to="Fifth-Ross-RHS" />
<trip type="noVar" depart="122" id="Ross-Seventh-Sixth.505" from="Ross-Seventh-Sixth" to="Ross-Forbes-Fourth" />
<trip type="noVar" depart="122" id="Sixth-RHS-Ross.165" from="Sixth-RHS-Ross" to="Ross-Sixth-Seventh" />
<trip type="noVar" depart="124" id="Grant-Fourth-Forbes.167" from="Grant-Fourth-Forbes" to="Grant-Sixth-Seventh" />
<trip type="noVar" depart="124" id="Sixth-RHS-Ross.340" from="Sixth-RHS-Ross" to="Ross-Forbes-Fourth" />
<trip type="noVar" depart="124" id="Ross-Fourth-Forbes.259" from="Ross-Fourth-Forbes" to="Forbes-Ross-RHS" />
<trip type="noVar" depart="125" id="Grant-Fourth-Forbes.443" from="Grant-Fourth-Forbes" to="Sixth-Ross-RHS" />
<trip type="noVar" depart="125" id="Ross-Seventh-Sixth.160" from="Ross-Seventh-Sixth" to="WilliamPenn-Forbes-Fourth" />
<trip type="noVar" depart="125" id="Fifth-RHS-Ross.68" from="Fifth-RHS-Ross" to="Ross-Sixth-Seventh" />
<trip type="noVar" depart="125" id="Ross-Fourth-Forbes.317" from="Ross-Fourth-Forbes" to="Forbes-Ross-RHS" />
<trip type="noVar" depart="128" id="Grant-Fourth-Forbes.415" from="Grant-Fourth-Forbes" to="Ross-Sixth-Seventh" />
<trip type="noVar" depart="128" id="Fifth-RHS-Ross.89" from="Fifth-RHS-Ross" to="Fifth-WilliamPenn-Smithfield" />
<trip type="noVar" depart="129" id="Oliver-Smithfield-WilliamPenn.110" from="Oliver-Smithfield-WilliamPenn" to="WilliamPenn-Forbes-Fourth" />
<trip type="noVar" depart="130" id="Ross-Seventh-Sixth.426" from="Ross-Seventh-Sixth" to="Sixth-Ross-RHS" />
<trip type="noVar" depart="131" id="Sixth-Smithfield-WilliamPenn.335" from="Sixth-Smithfield-WilliamPenn" to="Sixth-Ross-RHS" />
<trip type="noVar" depart="131" id="Sixth-RHS-Ross.337" from="Sixth-RHS-Ross" to="Sixth-WilliamPenn-Smithfield" />
<trip type="noVar" depart="132" id="WilliamPenn-Seventh-Sixth.208" from="WilliamPenn-Seventh-Sixth" to="WilliamPenn-Forbes-Fourth" />
<trip type="noVar" depart="132" id="Grant-Fourth-Forbes.51" from="Grant-Fourth-Forbes" to="Sixth-Ross-RHS" />
<trip type="noVar" depart="133" id="Sixth-RHS-Ross.357" from="Sixth-RHS-Ross" to="Sixth-WilliamPenn-Smithfield" />
<trip type="noVar" depart="133" id="Forbes-RHS-Ross.228" from="Forbes-RHS-Ross" to="WilliamPenn-Forbes-Fourth" />
<trip type="noVar" depart="135" id="Sixth-Smithfield-WilliamPenn.281" from="Sixth-Smithfield-WilliamPenn" to="Grant-Sixth-Seventh" />
<trip type="noVar" depart="136" id="Grant-Fourth-Forbes.22" from="Grant-Fourth-Forbes" to="Grant-Sixth-Seventh" />
<trip type="noVar" depart="137" id="Grant-Fourth-Forbes.214" from="Grant-Fourth-Forbes" to="WilliamPenn-Forbes-Fourth" />
<trip type="noVar" depart="139" id="Grant-Seventh-Sixth.151" from="Grant-Seventh-Sixth" to="Grant-Forbes-Fourth" />
<trip type="noVar" depart="139" id="WilliamPenn-Seventh-Sixth.108" from="WilliamPenn-Seventh-Sixth" to="Sixth-Ross-RHS" />
<trip type="noVar" depart="139" id="Sixth-RHS-Ross.127" from="Sixth-RHS-Ross" to="Grant-Sixth-Seventh" />
<trip type="noVar" depart="141" id="Ross-Seventh-Sixth.307" from="Ross-Seventh-Sixth" to="Sixth-Ross-RHS" />
<trip type="noVar" depart="142" id="Fifth-RHS-Ross.38" from="Fifth-RHS-Ross" to="Fifth-WilliamPenn-Smithfield" />
<trip type="noVar" depart="143" id="Grant-Fifth-Oliver.11" from="Grant-Fifth-Oliver" to="Grant-Sixth-Seventh" />
<trip type="noVar" depart="143" id="Ross-Seventh-Sixth.88" from="Ross-Seventh-Sixth" to="Sixth-Ross-RHS" />
<trip type="noVar" depart="143" id="Forbes-RHS-Ross.14" from="Forbes-RHS-Ross" to="WilliamPenn-Forbes-Fourth" />
<trip type="noVar" depart="143" id="Forbes-RHS-Ross.107" from="Forbes-RHS-Ross" to="Forbes-WilliamPenn-Smithfield" />
<trip type="noVar" depart="144" id="Forbes-RHS-Ross.343" from="Forbes-RHS-Ross" to="Forbes-WilliamPenn-Smithfield" />
<trip type="noVar" depart="145" id="Sixth-Smithfield-WilliamPenn.132" from="Sixth-Smithfield-WilliamPenn" to="Sixth-Ross-RHS" />
<trip type="noVar" depart="145" id="Ross-Fourth-Forbes.216" from="Ross-Fourth-Forbes" to="Forbes-Ross-RHS" />
<trip type="noVar" depart="148" id="Ross-Fourth-Forbes.456" from="Ross-Fourth-Forbes" to="Forbes-Ross-RHS" />
<trip type="noVar" depart="149" id="Fifth-RHS-Ross.317" from="Fifth-RHS-Ross" to="Fifth-WilliamPenn-Smithfield" />
<trip type="noVar" depart="150" id="Sixth-Smithfield-WilliamPenn.279" from="Sixth-Smithfield-WilliamPenn" to="Fifth-WilliamPenn-Smithfield" />
<trip type="noVar" depart="150" id="Grant-Fourth-Forbes.446" from="Grant-Fourth-Forbes" to="Grant-Sixth-Seventh" />
<trip type="noVar" depart="151" id="Grant-Fourth-Forbes.362" from="Grant-Fourth-Forbes" to="Sixth-WilliamPenn-Smithfield" />
<trip type="noVar" depart="154" id="Fifth-RHS-Ross.22" from="Fifth-RHS-Ross" to="Fifth-WilliamPenn-Smithfield" />
<trip type="noVar" depart="155" id="WilliamPenn-Seventh-Sixth.12" from="WilliamPenn-Seventh-Sixth" to="Fifth-WilliamPenn-Smithfield" />
<trip type="noVar" depart="155" id="Oliver-Smithfield-WilliamPenn.120" from="Oliver-Smithfield-WilliamPenn" to="Forbes-WilliamPenn-Smithfield" />
<trip type="noVar" depart="155" id="Grant-Fourth-Forbes.209" from="Grant-Fourth-Forbes" to="Forbes-Ross-RHS" />
<trip type="noVar" depart="155" id="Forbes-RHS-Ross.332" from="Forbes-RHS-Ross" to="Ross-Sixth-Seventh" />
<trip type="noVar" depart="157" id="Fifth-RHS-Ross.238" from="Fifth-RHS-Ross" to="Grant-Forbes-Fourth" />
<trip type="noVar" depart="157" id="Forbes-RHS-Ross.241" from="Forbes-RHS-Ross" to="WilliamPenn-Forbes-Fourth" />
<trip type="noVar" depart="157" id="Forbes-RHS-Ross.384" from="Forbes-RHS-Ross" to="Grant-Forbes-Fourth" />
<trip type="noVar" depart="157" id="Ross-Fourth-Forbes.79" from="Ross-Fourth-Forbes" to="Grant-Forbes-Fourth" />
<trip type="noVar" depart="158" id="Sixth-Smithfield-WilliamPenn.68" from="Sixth-Smithfield-WilliamPenn" to="WilliamPenn-Forbes-Fourth" />
<trip type="noVar" depart="159" id="Grant-Fourth-Forbes.73" from="Grant-Fourth-Forbes" to="Fifth-WilliamPenn-Smithfield" />
<trip type="noVar" depart="160" id="Oliver-Smithfield-WilliamPenn.229" from="Oliver-Smithfield-WilliamPenn" to="Ross-Sixth-Seventh" />
<trip type="noVar" depart="162" id="Sixth-RHS-Ross.55" from="Sixth-RHS-Ross" to="Sixth-WilliamPenn-Smithfield" />
<trip type="noVar" depart="162" id="Sixth-RHS-Ross.156" from="Sixth-RHS-Ross" to="Grant-Sixth-Seventh" />
<trip type="noVar" depart="162" id="Fifth-RHS-Ross.304" from="Fifth-RHS-Ross" to="Fifth-WilliamPenn-Smithfield" />
<trip type="noVar" depart="163" id="WilliamPenn-Seventh-Sixth.158" from="WilliamPenn-Seventh-Sixth" to="Ross-Sixth-Seventh" />
<trip type="noVar" depart="163" id="Sixth-RHS-Ross.172" from="Sixth-RHS-Ross" to="WilliamPenn-Forbes-Fourth" />
<trip type="noVar" depart="163" id="Fifth-RHS-Ross.261" from="Fifth-RHS-Ross" to="Forbes-Ross-RHS" />
<trip type="noVar" depart="166" id="Ross-Seventh-Sixth.40" from="Ross-Seventh-Sixth" to="Fifth-WilliamPenn-Smithfield" />
<trip type="noVar" depart="167" id="Ross-Fourth-Forbes.404" from="Ross-Fourth-Forbes" to="Sixth-WilliamPenn-Smithfield" />
<trip type="noVar" depart="169" id="Grant-Seventh-Sixth.357" from="Grant-Seventh-Sixth" to="Grant-Forbes-Fourth" />
<trip type="noVar" depart="170" id="Sixth-Smithfield-WilliamPenn.328" from="Sixth-Smithfield-WilliamPenn" to="Sixth-Ross-RHS" />
<trip type="noVar" depart="170" id="Grant-Fourth-Forbes.215" from="Grant-Fourth-Forbes" to="Grant-Sixth-Seventh" />
<trip type="noVar" depart="170" id="Ross-Seventh-Sixth.319" from="Ross-Seventh-Sixth" to="Ross-Forbes-Fourth" />
<trip type="noVar" depart="171" id="Ross-Seventh-Sixth.425" from="Ross-Seventh-Sixth" to="Ross-Forbes-Fourth" />
<trip type="noVar" depart="171" id="Forbes-RHS-Ross.361" from="Forbes-RHS-Ross" to="WilliamPenn-Forbes-Fourth" />
<trip type="noVar" depart="172" id="Fifth-RHS-Ross.296" from="Fifth-RHS-Ross" to="Ross-Sixth-Seventh" />
<trip type="noVar" depart="173" id="Sixth-Smithfield-WilliamPenn.152" from="Sixth-Smithfield-WilliamPenn" to="Grant-Sixth-Seventh" />
<trip type="noVar" depart="173" id="Sixth-Smithfield-WilliamPenn.177" from="Sixth-Smithfield-WilliamPenn" to="Fifth-WilliamPenn-Smithfield" />
<trip type="noVar" depart="173" id="Oliver-Smithfield-WilliamPenn.148" from="Oliver-Smithfield-WilliamPenn" to="Grant-Forbes-Fourth" />
<trip type="noVar" depart="173" id="Grant-Fourth-Forbes.394" from="Grant-Fourth-Forbes" to="Ross-Forbes-Fourth" />
<trip type="noVar" depart="173" id="Sixth-RHS-Ross.188" from="Sixth-RHS-Ross" to="Grant-Sixth-Seventh" />
<trip type="noVar" depart="173" id="Sixth-RHS-Ross.323" from="Sixth-RHS-Ross" to="Sixth-WilliamPenn-Smithfield" />
<trip type="noVar" depart="174" id="Grant-Fourth-Forbes.105" from="Grant-Fourth-Forbes" to="Grant-Sixth-Seventh" />
<trip type="noVar" depart="176" id="Sixth-RHS-Ross.320" from="Sixth-RHS-Ross" to="Grant-Sixth-Seventh" />
<trip type="noVar" depart="178" id="Sixth-RHS-Ross.373" from="Sixth-RHS-Ross" to="Grant-Forbes-Fourth" />
<trip type="noVar" depart="178" id="Fifth-RHS-Ross.166" from="Fifth-RHS-Ross" to="Grant-Sixth-Seventh" />
<trip type="noVar" depart="179" id="Ross-Seventh-Sixth.328" from="Ross-Seventh-Sixth" to="Ross-Forbes-Fourth" />
<trip type="noVar" depart="179" id="Sixth-RHS-Ross.307" from="Sixth-RHS-Ross" to="Grant-Forbes-Fourth" />
<trip type="noVar" depart="182" id="Ross-Seventh-Sixth.197" from="Ross-Seventh-Sixth" to="Grant-Sixth-Seventh" />
<trip type="noVar" depart="185" id="WilliamPenn-Seventh-Sixth.66" from="WilliamPenn-Seventh-Sixth" to="Grant-Sixth-Seventh" />
<trip type="noVar" depart="185" id="Ross-Seventh-Sixth.380" from="Ross-Seventh-Sixth" to="Sixth-Ross-RHS" />
<trip type="noVar" depart="185" id="Forbes-RHS-Ross.22" from="Forbes-RHS-Ross" to="Ross-Forbes-Fourth" />
<trip type="noVar" depart="185" id="Forbes-RHS-Ross.174" from="Forbes-RHS-Ross" to="Grant-Forbes-Fourth" />
<trip type="noVar" depart="186" id="Ross-Fourth-Forbes.52" from="Ross-Fourth-Forbes" to="Ross-Sixth-Seventh" />
<trip type="noVar" depart="187" id="Sixth-Smithfield-WilliamPenn.21" from="Sixth-Smithfield-WilliamPenn" to="Grant-Sixth-Seventh" />
<trip type="noVar" depart="187" id="Grant-Fifth-Oliver.31" from="Grant-Fifth-Oliver" to="Grant-Sixth-Seventh" />
<trip type="noVar" depart="191" id="Ross-Seventh-Sixth.459" from="Ross-Seventh-Sixth" to="Sixth-WilliamPenn-Smithfield" />
<trip type="noVar" depart="192" id="Grant-Fourth-Forbes.37" from="Grant-Fourth-Forbes" to="Forbes-Ross-RHS" />
<trip type="noVar" depart="194" id="WilliamPenn-Seventh-Sixth.47" from="WilliamPenn-Seventh-Sixth" to="Sixth-Ross-RHS" />
<trip type="noVar" depart="195" id="Grant-Seventh-Sixth.403" from="Grant-Seventh-Sixth" to="Grant-Forbes-Fourth" />
<trip type="noVar" depart="195" id="Sixth-Smithfield-WilliamPenn.125" from="Sixth-Smithfield-WilliamPenn" to="Sixth-Ross-RHS" />
<trip type="noVar" depart="195" id="Ross-Seventh-Sixth.114" from="Ross-Seventh-Sixth" to="Sixth-WilliamPenn-Smithfield" />
<trip type="noVar" depart="196" id="Grant-Seventh-Sixth.285" from="Grant-Seventh-Sixth" to="Ross-Forbes-Fourth" />
<trip type="noVar" depart="196" id="Fifth-RHS-Ross.18" from="Fifth-RHS-Ross" to="Grant-Forbes-Fourth" />
<trip type="noVar" depart="198" id="Oliver-Smithfield-WilliamPenn.264" from="Oliver-Smithfield-WilliamPenn" to="Grant-Sixth-Seventh" />
<trip type="noVar" depart="199" id="Fifth-Smithfield-WilliamPenn.49" from="Fifth-Smithfield-WilliamPenn" to="Fifth-Ross-RHS" />