<?xml version="1.0" encoding="UTF-8"?>

<!-- generated on 2022-07-14 15:19:24 by Eclipse SUMO netedit Version 1.11.0
<configuration xmlns:xsi="http://www.w3.org/2001/XMLSchema-instance" xsi:noNamespaceSchemaLocation="http://sumo.dlr.de/xsd/netconvertConfiguration.xsd">

    <input>
        <sumo-net-file value="/Users/davidneiman/Desktop/pittsburgh2.net.xml"/>
    </input>

    <output>
        <output-file value="/Users/davidneiman/Desktop/pittsburghsmall.net.xml"/>
        <output.street-names value="true"/>
    </output>

    <processing>
        <geometry.min-radius.fix.railways value="false"/>
        <geometry.max-grade.fix value="false"/>
        <offset.disable-normalization value="true"/>
        <lefthand value="false"/>
    </processing>

    <junctions>
        <no-turnarounds value="true"/>
        <junctions.corner-detail value="5"/>
        <junctions.limit-turn-speed value="5.5"/>
        <rectangular-lane-cut value="false"/>
    </junctions>

    <pedestrian>
        <walkingareas value="false"/>
    </pedestrian>

    <report>
        <aggregate-warnings value="5"/>
    </report>

</configuration>
-->

<net version="1.9" junctionCornerDetail="5" limitTurnSpeed="5.50" xmlns:xsi="http://www.w3.org/2001/XMLSchema-instance" xsi:noNamespaceSchemaLocation="http://sumo.dlr.de/xsd/net_file.xsd">

    <location netOffset="-584408.72,-4476613.85" convBoundary="0.00,64.26,1397.91,1120.93" origBoundary="-80.004731,40.435799,-79.988268,40.445849" projParameter="+proj=utm +zone=17 +ellps=WGS84 +datum=WGS84 +units=m +no_defs"/>

    <type id="highway.bridleway" priority="1" numLanes="1" speed="2.78" allow="pedestrian" oneway="1" width="2.00"/>
    <type id="highway.bus_guideway" priority="1" numLanes="1" speed="27.78" allow="bus" oneway="1"/>
    <type id="highway.cycleway" priority="1" numLanes="1" speed="8.33" allow="bicycle" oneway="0" width="1.00"/>
    <type id="highway.footway" priority="1" numLanes="1" speed="2.78" allow="pedestrian" oneway="1" width="2.00"/>
    <type id="highway.ford" priority="1" numLanes="1" speed="2.78" allow="army" oneway="0"/>
    <type id="highway.living_street" priority="2" numLanes="1" speed="2.78" disallow="tram rail_urban rail rail_electric rail_fast ship" oneway="0"/>
    <type id="highway.motorway" priority="14" numLanes="2" speed="39.44" allow="private emergency authority army vip passenger hov taxi bus coach delivery truck trailer motorcycle evehicle custom1 custom2" oneway="1"/>
    <type id="highway.motorway_link" priority="9" numLanes="1" speed="22.22" allow="private emergency authority army vip passenger hov taxi bus coach delivery truck trailer motorcycle evehicle custom1 custom2" oneway="1"/>
    <type id="highway.path" priority="1" numLanes="1" speed="2.78" allow="pedestrian bicycle" oneway="0" width="2.00"/>
    <type id="highway.pedestrian" priority="1" numLanes="1" speed="2.78" allow="pedestrian" oneway="1" width="2.00"/>
    <type id="highway.primary" priority="12" numLanes="2" speed="27.78" disallow="tram rail_urban rail rail_electric rail_fast ship" oneway="0"/>
    <type id="highway.primary_link" priority="7" numLanes="1" speed="22.22" disallow="tram rail_urban rail rail_electric rail_fast ship" oneway="0"/>
    <type id="highway.raceway" priority="15" numLanes="2" speed="83.33" allow="vip" oneway="0"/>
    <type id="highway.residential" priority="3" numLanes="1" speed="13.89" disallow="tram rail_urban rail rail_electric rail_fast ship" oneway="0"/>
    <type id="highway.secondary" priority="11" numLanes="1" speed="27.78" disallow="tram rail_urban rail rail_electric rail_fast ship" oneway="0"/>
    <type id="highway.secondary_link" priority="6" numLanes="1" speed="22.22" disallow="tram rail_urban rail rail_electric rail_fast ship" oneway="0"/>
    <type id="highway.service" priority="1" numLanes="1" speed="5.56" allow="pedestrian delivery bicycle" oneway="0"/>
    <type id="highway.stairs" priority="1" numLanes="1" speed="1.39" allow="pedestrian" oneway="1" width="2.00"/>
    <type id="highway.step" priority="1" numLanes="1" speed="1.39" allow="pedestrian" oneway="1" width="2.00"/>
    <type id="highway.steps" priority="1" numLanes="1" speed="1.39" allow="pedestrian" oneway="1" width="2.00"/>
    <type id="highway.tertiary" priority="10" numLanes="1" speed="22.22" disallow="tram rail_urban rail rail_electric rail_fast ship" oneway="0"/>
    <type id="highway.tertiary_link" priority="5" numLanes="1" speed="22.22" disallow="tram rail_urban rail rail_electric rail_fast ship" oneway="0"/>
    <type id="highway.track" priority="1" numLanes="1" speed="5.56" allow="pedestrian motorcycle moped bicycle" oneway="0"/>
    <type id="highway.trunk" priority="13" numLanes="2" speed="27.78" disallow="pedestrian bicycle tram rail_urban rail rail_electric rail_fast ship" oneway="0"/>
    <type id="highway.trunk_link" priority="8" numLanes="1" speed="22.22" disallow="pedestrian bicycle tram rail_urban rail rail_electric rail_fast ship" oneway="0"/>
    <type id="highway.unclassified" priority="4" numLanes="1" speed="13.89" disallow="tram rail_urban rail rail_electric rail_fast ship" oneway="0"/>
    <type id="highway.unsurfaced" priority="1" numLanes="1" speed="8.33" disallow="tram rail_urban rail rail_electric rail_fast ship" oneway="0"/>
    <type id="railway.highspeed" priority="21" numLanes="1" speed="69.44" allow="rail_fast" oneway="1"/>
    <type id="railway.light_rail" priority="19" numLanes="1" speed="27.78" allow="rail_urban" oneway="1"/>
    <type id="railway.preserved" priority="16" numLanes="1" speed="27.78" allow="rail" oneway="1"/>
    <type id="railway.rail" priority="20" numLanes="1" speed="44.44" allow="rail" oneway="1"/>
    <type id="railway.subway" priority="18" numLanes="1" speed="27.78" allow="rail_urban" oneway="1"/>
    <type id="railway.tram" priority="17" numLanes="1" speed="13.89" allow="tram" oneway="1"/>

    <edge id=":1016963192-AddedOnRampNode_0" function="internal">
        <lane id=":1016963192-AddedOnRampNode_0_0" index="0" allow="private emergency authority army vip passenger hov taxi bus coach delivery truck trailer motorcycle evehicle custom1 custom2" speed="22.22" length="20.47" shape="949.33,430.13 947.30,423.77 944.95,418.93 942.65,415.07 940.76,411.63"/>
    </edge>
    <edge id=":104482657_0" function="internal">
        <lane id=":104482657_0_0" index="0" disallow="tram rail_urban rail rail_electric rail_fast ship" speed="3.65" length="4.67" shape="510.42,153.78 511.85,153.98 512.55,154.53 512.54,155.42 511.80,156.66"/>
    </edge>
    <edge id=":104572628_0" function="internal">
        <lane id=":104572628_0_0" index="0" disallow="tram rail_urban rail rail_electric rail_fast ship" speed="22.22" length="0.29" shape="636.37,605.12 636.11,605.25"/>
    </edge>
    <edge id=":104572628_1" function="internal">
        <lane id=":104572628_1_0" index="0" disallow="tram rail_urban rail rail_electric rail_fast ship" speed="22.22" length="0.31" shape="634.72,602.36 635.00,602.23"/>
    </edge>
    <edge id=":104572648_0" function="internal">
        <lane id=":104572648_0_0" index="0" disallow="pedestrian bicycle tram rail_urban rail rail_electric rail_fast ship" speed="12.71" length="10.27" shape="819.49,526.50 816.55,525.75 814.43,525.42 812.35,525.66 809.51,526.62"/>
    </edge>
    <edge id=":104572648_1" function="internal">
        <lane id=":104572648_1_0" index="0" disallow="pedestrian bicycle tram rail_urban rail rail_electric rail_fast ship" speed="6.07" length="13.06" shape="819.49,526.50 815.07,524.98 813.25,523.31 814.02,521.47 817.40,519.47"/>
    </edge>
    <edge id=":104572648_2" function="internal">
        <lane id=":104572648_2_0" index="0" disallow="tram rail_urban rail rail_electric rail_fast ship" speed="27.78" length="10.11" shape="818.70,522.40 809.51,526.62"/>
    </edge>
    <edge id=":104572648_3" function="internal">
        <lane id=":104572648_3_0" index="0" disallow="tram rail_urban rail rail_electric rail_fast ship" speed="3.65" length="2.34" shape="818.70,522.40 817.27,522.15 816.58,521.59"/>
    </edge>
    <edge id=":104572648_6" function="internal">
        <lane id=":104572648_6_0" index="0" disallow="tram rail_urban rail rail_electric rail_fast ship" speed="3.65" length="2.34" shape="816.58,521.59 816.62,520.69 817.40,519.47"/>
    </edge>
    <edge id=":104572648_4" function="internal">
        <lane id=":104572648_4_0" index="0" disallow="tram rail_urban rail rail_electric rail_fast ship" speed="27.78" length="9.97" shape="808.34,523.64 817.40,519.47"/>
    </edge>
    <edge id=":104572648_5" function="internal">
        <lane id=":104572648_5_0" index="0" disallow="tram rail_urban rail rail_electric rail_fast ship" speed="3.65" length="2.34" shape="808.34,523.64 809.75,523.94 810.42,524.54"/>
    </edge>
    <edge id=":104572648_7" function="internal">
        <lane id=":104572648_7_0" index="0" disallow="tram rail_urban rail rail_electric rail_fast ship" speed="3.65" length="2.34" shape="810.42,524.54 810.34,525.43 809.51,526.62"/>
    </edge>
    <edge id=":104573441_0" function="internal">
        <lane id=":104573441_0_0" index="0" disallow="tram rail_urban rail rail_electric rail_fast ship" speed="3.65" length="4.67" shape="853.10,348.71 854.32,349.48 854.74,350.27 854.36,351.08 853.18,351.91"/>
    </edge>
    <edge id=":104650352_0" function="internal">
        <lane id=":104650352_0_0" index="0" disallow="tram rail_urban rail rail_electric rail_fast ship" speed="3.65" length="4.67" shape="777.22,160.77 778.64,161.05 779.32,161.63 779.26,162.52 778.46,163.73"/>
    </edge>
    <edge id=":105983749_0" function="internal">
        <lane id=":105983749_0_0" index="0" disallow="tram rail_urban rail rail_electric rail_fast ship" speed="27.78" length="0.30" shape="792.39,623.22 792.53,623.49"/>
        <lane id=":105983749_0_1" index="1" disallow="tram rail_urban rail rail_electric rail_fast ship" speed="27.78" length="0.30" shape="789.53,624.66 789.66,624.92"/>
    </edge>
    <edge id=":107535014_0" function="internal">
        <lane id=":107535014_0_0" index="0" disallow="tram rail_urban rail rail_electric rail_fast ship" speed="6.51" length="9.00" shape="676.52,142.11 675.14,140.06 673.44,138.95 671.41,138.76 669.06,139.49"/>
    </edge>
    <edge id=":107535014_1" function="internal">
        <lane id=":107535014_1_0" index="0" disallow="tram rail_urban rail rail_electric rail_fast ship" speed="27.78" length="11.14" shape="676.52,142.11 671.69,132.07"/>
    </edge>
    <edge id=":107535014_2" function="internal">
        <lane id=":107535014_2_0" index="0" disallow="tram rail_urban rail rail_electric rail_fast ship" speed="3.65" length="2.34" shape="676.52,142.11 676.71,140.68 677.26,139.97"/>
    </edge>
    <edge id=":107535014_6" function="internal">
        <lane id=":107535014_6_0" index="0" disallow="tram rail_urban rail rail_electric rail_fast ship" speed="3.65" length="2.34" shape="677.26,139.97 678.15,139.98 679.40,140.71"/>
    </edge>
    <edge id=":107535014_3" function="internal">
        <lane id=":107535014_3_0" index="0" disallow="tram rail_urban rail rail_electric rail_fast ship" speed="27.78" length="11.13" shape="674.57,130.68 679.40,140.71"/>
    </edge>
    <edge id=":107535014_4" function="internal">
        <lane id=":107535014_4_0" index="0" disallow="tram rail_urban rail rail_electric rail_fast ship" speed="7.31" length="4.03" shape="674.57,130.68 675.13,133.12 674.67,134.57"/>
    </edge>
    <edge id=":107535014_5" function="internal">
        <lane id=":107535014_5_0" index="0" disallow="tram rail_urban rail rail_electric rail_fast ship" speed="3.65" length="2.34" shape="674.57,130.68 674.37,132.11 673.82,132.82"/>
    </edge>
    <edge id=":107535014_7" function="internal">
        <lane id=":107535014_7_0" index="0" disallow="tram rail_urban rail rail_electric rail_fast ship" speed="7.31" length="7.66" shape="674.67,134.57 674.40,135.41 672.38,137.53 669.06,139.49"/>
    </edge>
    <edge id=":107535014_8" function="internal">
        <lane id=":107535014_8_0" index="0" disallow="tram rail_urban rail rail_electric rail_fast ship" speed="3.65" length="2.34" shape="673.82,132.82 672.93,132.80 671.69,132.07"/>
    </edge>
    <edge id=":1362263122_0" function="internal">
        <lane id=":1362263122_0_0" index="0" disallow="pedestrian bicycle tram rail_urban rail rail_electric rail_fast ship" speed="27.78" length="2.14" shape="869.67,554.17 870.10,554.53 870.43,554.73 870.77,554.92 871.25,555.21"/>
        <lane id=":1362263122_0_1" index="1" disallow="pedestrian bicycle tram rail_urban rail rail_electric rail_fast ship" speed="27.78" length="2.14" shape="867.55,556.57 868.09,557.02 868.49,557.29 868.91,557.53 869.51,557.90"/>
    </edge>
    <edge id=":2013805640_0" function="internal">
        <lane id=":2013805640_0_0" index="0" disallow="tram rail_urban rail rail_electric rail_fast ship" speed="27.78" length="0.30" shape="814.62,454.69 814.51,454.41"/>
    </edge>
    <edge id=":2013805640_1" function="internal">
        <lane id=":2013805640_1_0" index="0" disallow="tram rail_urban rail rail_electric rail_fast ship" speed="27.78" length="0.29" shape="817.48,453.22 817.59,453.49"/>
    </edge>
    <edge id=":2133358849_0" function="internal">
        <lane id=":2133358849_0_0" index="0" disallow="tram rail_urban rail rail_electric rail_fast ship" speed="13.89" length="5.38" shape="492.91,234.92 492.01,233.65 491.08,232.99 490.15,232.34 489.26,231.07"/>
        <lane id=":2133358849_0_1" index="1" disallow="tram rail_urban rail rail_electric rail_fast ship" speed="13.89" length="5.38" shape="492.91,234.92 492.46,233.43 492.52,232.29 492.58,231.16 492.14,229.67"/>
    </edge>
    <edge id=":4326816635_0" function="internal">
        <lane id=":4326816635_0_0" index="0" disallow="tram rail_urban rail rail_electric rail_fast ship" speed="22.22" length="0.30" shape="709.65,569.87 709.38,570.00"/>
    </edge>
    <edge id=":4326816635_1" function="internal">
        <lane id=":4326816635_1_0" index="0" disallow="tram rail_urban rail rail_electric rail_fast ship" speed="22.22" length="0.30" shape="707.97,567.13 708.24,567.00"/>
    </edge>
    <edge id=":4459167069_0" function="internal">
        <lane id=":4459167069_0_0" index="0" disallow="tram rail_urban rail rail_electric rail_fast ship" speed="27.78" length="8.40" shape="726.83,373.37 724.82,374.88 723.90,376.53 722.98,378.18 720.97,379.69"/>
        <lane id=":4459167069_0_1" index="1" disallow="tram rail_urban rail rail_electric rail_fast ship" speed="27.78" length="8.40" shape="726.83,373.37 719.60,376.80"/>
    </edge>
    <edge id=":4459167069_2" function="internal">
        <lane id=":4459167069_2_0" index="0" disallow="tram rail_urban rail rail_electric rail_fast ship" speed="27.78" length="8.80" shape="716.86,371.01 719.30,370.41 721.16,370.75 723.02,371.08 725.46,370.48"/>
    </edge>
    <edge id=":4491753305_0" function="internal">
        <lane id=":4491753305_0_0" index="0" disallow="pedestrian bicycle tram rail_urban rail rail_electric rail_fast ship" speed="27.78" length="0.30" shape="858.10,564.63 857.96,564.36"/>
        <lane id=":4491753305_0_1" index="1" disallow="pedestrian bicycle tram rail_urban rail rail_electric rail_fast ship" speed="27.78" length="0.30" shape="860.92,563.12 860.78,562.85"/>
    </edge>
    <edge id=":4599846706_0" function="internal">
        <lane id=":4599846706_0_0" index="0" disallow="tram rail_urban rail rail_electric rail_fast ship" speed="11.18" length="0.30" shape="781.13,629.05 780.99,628.78"/>
        <lane id=":4599846706_0_1" index="1" disallow="tram rail_urban rail rail_electric rail_fast ship" speed="11.18" length="0.30" shape="783.99,627.62 783.86,627.35"/>
    </edge>
    <edge id=":4599846721_0" function="internal">
        <lane id=":4599846721_0_0" index="0" disallow="tram rail_urban rail rail_electric rail_fast ship" speed="3.65" length="4.67" shape="541.84,138.96 541.96,137.52 542.46,136.78 543.35,136.74 544.64,137.40"/>
    </edge>
    <edge id=":54329390#1-AddedOnRampNode_0" function="internal">
        <lane id=":54329390#1-AddedOnRampNode_0_0" index="0" allow="private emergency authority army vip passenger hov taxi bus coach delivery truck trailer motorcycle evehicle custom1 custom2" speed="17.88" length="8.00" shape="958.55,452.34 955.87,444.80"/>
        <lane id=":54329390#1-AddedOnRampNode_0_1" index="1" allow="private emergency authority army vip passenger hov taxi bus coach delivery truck trailer motorcycle evehicle custom1 custom2" speed="17.88" length="8.00" shape="961.57,451.27 958.88,443.73"/>
    </edge>
    <edge id=":6754592056_0" function="internal">
        <lane id=":6754592056_0_0" index="0" disallow="tram rail_urban rail rail_electric rail_fast ship" speed="27.78" length="0.30" shape="718.95,231.42 718.83,231.15"/>
    </edge>
    <edge id=":6754592056_1" function="internal">
        <lane id=":6754592056_1_0" index="0" disallow="tram rail_urban rail rail_electric rail_fast ship" speed="27.78" length="0.30" shape="721.73,229.80 721.86,230.08"/>
    </edge>
    <edge id=":6828891261_0" function="internal">
        <lane id=":6828891261_0_0" index="0" disallow="pedestrian bicycle tram rail_urban rail rail_electric rail_fast ship" speed="27.78" length="0.30" shape="860.34,568.82 860.20,568.55"/>
        <lane id=":6828891261_0_1" index="1" disallow="pedestrian bicycle tram rail_urban rail rail_electric rail_fast ship" speed="27.78" length="0.30" shape="863.16,567.31 863.02,567.04"/>
    </edge>
    <edge id=":684667052_0" function="internal">
        <lane id=":684667052_0_0" index="0" disallow="tram rail_urban rail rail_electric rail_fast ship" speed="3.65" length="4.67" shape="654.45,95.86 654.69,94.44 655.25,93.74 656.15,93.78 657.37,94.54"/>
    </edge>
    <edge id=":684828137_0" function="internal">
        <lane id=":684828137_0_0" index="0" allow="private emergency authority army vip passenger hov taxi bus coach delivery truck trailer motorcycle evehicle custom1 custom2" speed="25.00" length="8.38" shape="933.57,713.92 931.76,712.14 929.98,711.43 928.26,710.69 926.60,708.81"/>
        <lane id=":684828137_0_1" index="1" allow="private emergency authority army vip passenger hov taxi bus coach delivery truck trailer motorcycle evehicle custom1 custom2" speed="25.00" length="8.38" shape="936.22,712.13 934.45,710.40 932.70,709.73 931.00,709.03 929.37,707.22"/>
        <lane id=":684828137_0_2" index="2" allow="private emergency authority army vip passenger hov taxi bus coach delivery truck trailer motorcycle evehicle custom1 custom2" speed="25.00" length="8.38" shape="936.22,712.13 932.15,705.62"/>
    </edge>
    <edge id=":684828137_3" function="internal">
        <lane id=":684828137_3_0" index="0" disallow="pedestrian bicycle tram rail_urban rail rail_electric rail_fast ship" speed="27.78" length="7.93" shape="938.87,710.34 937.13,708.67 935.41,708.04 933.74,707.38 932.15,705.62"/>
        <lane id=":684828137_3_1" index="1" disallow="pedestrian bicycle tram rail_urban rail rail_electric rail_fast ship" speed="27.78" length="7.93" shape="938.87,710.34 934.92,704.03"/>
    </edge>
    <edge id=":684828139_0" function="internal">
        <lane id=":684828139_0_0" index="0" disallow="pedestrian bicycle tram rail_urban rail rail_electric rail_fast ship" speed="17.91" length="7.63" shape="900.52,661.81 899.10,660.06 897.66,659.11 896.48,658.08 895.84,656.10"/>
        <lane id=":684828139_0_1" index="1" disallow="pedestrian bicycle tram rail_urban rail rail_electric rail_fast ship" speed="16.92" length="6.80" shape="903.48,660.55 902.17,659.05 900.79,658.30 899.64,657.48 899.03,655.77"/>
    </edge>
    <edge id=":684828139_2" function="internal">
        <lane id=":684828139_2_0" index="0" disallow="pedestrian bicycle tram rail_urban rail rail_electric rail_fast ship" speed="25.00" length="3.96" shape="906.43,659.29 905.84,658.12 905.50,657.29 905.24,656.42 904.88,655.15"/>
        <lane id=":684828139_2_1" index="1" disallow="pedestrian bicycle tram rail_urban rail rail_electric rail_fast ship" speed="25.00" length="3.96" shape="909.39,658.04 908.91,657.12 908.63,656.48 908.41,655.80 908.12,654.81"/>
    </edge>
    <edge id=":684828212_0" function="internal">
        <lane id=":684828212_0_0" index="0" allow="private emergency authority army vip passenger hov taxi bus coach delivery truck trailer motorcycle evehicle custom1 custom2" speed="20.05" length="8.15" shape="948.47,368.24 949.53,370.41 950.18,371.93 950.72,373.50 951.44,375.81"/>
    </edge>
    <edge id=":684828212_1" function="internal">
        <lane id=":684828212_1_0" index="0" allow="private emergency authority army vip passenger hov taxi bus coach delivery truck trailer motorcycle evehicle custom1 custom2" speed="17.88" length="7.65" shape="948.47,368.24 949.54,370.41 950.23,371.92 950.85,373.46 951.71,375.73"/>
        <lane id=":684828212_1_1" index="1" allow="private emergency authority army vip passenger hov taxi bus coach delivery truck trailer motorcycle evehicle custom1 custom2" speed="17.88" length="7.65" shape="945.60,369.65 946.60,371.69 947.25,373.10 947.84,374.54 948.65,376.67"/>
        <lane id=":684828212_1_2" index="2" allow="private emergency authority army vip passenger hov taxi bus coach delivery truck trailer motorcycle evehicle custom1 custom2" speed="17.88" length="7.65" shape="942.73,371.07 943.67,372.97 944.28,374.29 944.83,375.63 945.58,377.61"/>
    </edge>
    <edge id=":684828443_0" function="internal">
        <lane id=":684828443_0_0" index="0" disallow="pedestrian bicycle tram rail_urban rail rail_electric rail_fast ship" speed="27.78" length="6.02" shape="871.42,555.32 872.95,555.99 874.16,556.06 875.39,556.08 877.00,556.63"/>
        <lane id=":684828443_0_1" index="1" disallow="pedestrian bicycle tram rail_urban rail rail_electric rail_fast ship" speed="27.78" length="6.02" shape="869.68,558.01 871.28,558.73 872.54,558.82 873.83,558.87 875.51,559.46"/>
        <lane id=":684828443_0_2" index="2" disallow="pedestrian bicycle tram rail_urban rail rail_electric rail_fast ship" speed="27.78" length="6.02" shape="869.68,558.01 871.06,559.18 871.80,560.24 872.56,561.26 874.02,562.29"/>
    </edge>
    <edge id=":684842293_0" function="internal">
        <lane id=":684842293_0_0" index="0" allow="private emergency authority army vip passenger hov taxi bus coach delivery truck trailer motorcycle evehicle custom1 custom2" speed="22.22" length="7.90" shape="969.32,764.90 967.75,763.16 966.40,762.20 965.10,761.21 963.67,759.37"/>
        <lane id=":684842293_0_1" index="1" allow="private emergency authority army vip passenger hov taxi bus coach delivery truck trailer motorcycle evehicle custom1 custom2" speed="22.22" length="7.90" shape="969.32,764.90 968.18,762.91 967.76,761.36 967.39,759.77 966.39,757.69"/>
    </edge>
    <edge id=":684842311_0" function="internal">
        <lane id=":684842311_0_0" index="0" allow="private emergency authority army vip passenger hov taxi bus coach delivery truck trailer motorcycle evehicle custom1 custom2" speed="22.22" length="8.11" shape="974.11,531.01 972.12,523.64"/>
        <lane id=":684842311_0_1" index="1" allow="private emergency authority army vip passenger hov taxi bus coach delivery truck trailer motorcycle evehicle custom1 custom2" speed="22.22" length="8.11" shape="974.11,531.01 974.06,528.54 974.76,526.82 975.40,525.10 975.18,522.69"/>
    </edge>
    <edge id=":684842312_0" function="internal">
        <lane id=":684842312_0_0" index="0" allow="private emergency authority army vip passenger hov taxi bus coach delivery truck trailer motorcycle evehicle custom1 custom2" speed="17.88" length="3.44" shape="942.81,408.85 941.61,405.68"/>
        <lane id=":684842312_0_1" index="1" allow="private emergency authority army vip passenger hov taxi bus coach delivery truck trailer motorcycle evehicle custom1 custom2" speed="17.88" length="3.44" shape="945.81,407.76 944.58,404.49"/>
    </edge>
    <edge id=":684842312_2" function="internal">
        <lane id=":684842312_2_0" index="0" allow="private emergency authority army vip passenger hov taxi bus coach delivery truck trailer motorcycle evehicle custom1 custom2" speed="20.05" length="3.28" shape="939.95,409.88 938.64,406.88"/>
    </edge>
    <edge id=":684842320_0" function="internal">
        <lane id=":684842320_0_0" index="0" allow="private emergency authority army vip passenger hov taxi bus coach delivery truck trailer motorcycle evehicle custom1 custom2" speed="17.88" length="2.62" shape="974.23,435.53 974.52,436.31 974.70,436.85 974.85,437.40 975.05,438.21"/>
        <lane id=":684842320_0_1" index="1" allow="private emergency authority army vip passenger hov taxi bus coach delivery truck trailer motorcycle evehicle custom1 custom2" speed="17.88" length="2.62" shape="971.24,436.65 971.49,437.33 971.64,437.79 971.77,438.27 971.94,438.97"/>
    </edge>
    <edge id=":684842320_2" function="internal">
        <lane id=":684842320_2_0" index="0" allow="private emergency authority army vip passenger hov taxi bus coach delivery truck trailer motorcycle evehicle custom1 custom2" speed="20.05" length="2.68" shape="968.24,437.78 970.43,439.33"/>
    </edge>
    <edge id=":684842330_0" function="internal">
        <lane id=":684842330_0_0" index="0" allow="private emergency authority army vip passenger hov taxi bus coach delivery truck trailer motorcycle evehicle custom1 custom2" speed="22.22" length="0.29" shape="931.54,669.51 931.26,669.55"/>
    </edge>
    <edge id=":684842474_0" function="internal">
        <lane id=":684842474_0_0" index="0" disallow="pedestrian bicycle tram rail_urban rail rail_electric rail_fast ship" speed="22.22" length="8.69" shape="950.41,626.02 952.55,624.67 954.22,624.12 956.00,623.73 958.43,622.88"/>
    </edge>
    <edge id=":684842474_1" function="internal">
        <lane id=":684842474_1_0" index="0" disallow="pedestrian bicycle tram rail_urban rail rail_electric rail_fast ship" speed="15.77" length="7.67" shape="952.35,628.57 954.22,627.34 955.67,626.82 957.26,626.58 959.51,626.18"/>
    </edge>
    <edge id=":8484318433_0" function="internal">
        <lane id=":8484318433_0_0" index="0" disallow="pedestrian bicycle tram rail_urban rail rail_electric rail_fast ship" speed="22.22" length="0.30" shape="833.35,531.60 833.09,531.46"/>
    </edge>
    <edge id=":8484452984_0" function="internal">
        <lane id=":8484452984_0_0" index="0" disallow="tram rail_urban rail rail_electric rail_fast ship" speed="22.22" length="0.10" shape="450.10,694.57 450.10,694.57"/>
    </edge>
    <edge id=":8484452984_1" function="internal">
        <lane id=":8484452984_1_0" index="0" disallow="tram rail_urban rail rail_electric rail_fast ship" speed="22.22" length="0.10" shape="448.72,691.69 448.72,691.69"/>
    </edge>
    <edge id=":8484452987_0" function="internal">
        <lane id=":8484452987_0_0" index="0" disallow="tram rail_urban rail rail_electric rail_fast ship" speed="22.22" length="0.10" shape="516.34,662.72 516.34,662.72"/>
    </edge>
    <edge id=":8484452987_1" function="internal">
        <lane id=":8484452987_1_0" index="0" disallow="tram rail_urban rail rail_electric rail_fast ship" speed="22.22" length="0.10" shape="514.94,659.84 514.94,659.84"/>
    </edge>
    <edge id=":9596645320_0" function="internal">
        <lane id=":9596645320_0_0" index="0" disallow="tram rail_urban rail rail_electric rail_fast ship" speed="11.18" length="8.21" shape="634.81,707.80 636.11,709.83 637.32,711.01 638.54,712.20 639.84,714.22"/>
        <lane id=":9596645320_0_1" index="1" disallow="tram rail_urban rail rail_electric rail_fast ship" speed="11.18" length="8.21" shape="631.95,709.24 633.25,711.27 634.47,712.45 635.68,713.63 636.98,715.66"/>
        <lane id=":9596645320_0_2" index="2" disallow="tram rail_urban rail rail_electric rail_fast ship" speed="11.18" length="8.21" shape="631.95,709.24 632.81,711.49 633.04,713.17 633.27,714.85 634.12,717.10"/>
    </edge>
    <edge id=":9602381234_0" function="internal">
        <lane id=":9602381234_0_0" index="0" disallow="tram rail_urban rail rail_electric rail_fast ship" speed="11.18" length="8.21" shape="624.39,285.48 625.69,287.51 626.90,288.69 628.12,289.88 629.42,291.91"/>
        <lane id=":9602381234_0_1" index="1" disallow="tram rail_urban rail rail_electric rail_fast ship" speed="11.18" length="8.21" shape="621.53,286.91 622.83,288.94 624.05,290.13 625.26,291.31 626.56,293.34"/>
        <lane id=":9602381234_0_2" index="2" disallow="tram rail_urban rail rail_electric rail_fast ship" speed="11.18" length="8.21" shape="621.53,286.91 622.39,289.17 622.62,290.85 622.84,292.53 623.70,294.78"/>
    </edge>
    <edge id=":cluster_104472649_1362263119_684800917_8484285016_8484318434_8486322131_8486322133_0" function="internal">
        <lane id=":cluster_104472649_1362263119_684800917_8484285016_8484318434_8486322131_8486322133_0_0" index="0" disallow="pedestrian bicycle tram rail_urban rail rail_electric rail_fast ship" speed="25.00" length="11.56" shape="836.68,526.34 841.31,536.93"/>
    </edge>
    <edge id=":cluster_104472649_1362263119_684800917_8484285016_8484318434_8486322131_8486322133_1" function="internal">
        <lane id=":cluster_104472649_1362263119_684800917_8484285016_8484318434_8486322131_8486322133_1_0" index="0" disallow="pedestrian bicycle tram rail_urban rail rail_electric rail_fast ship" speed="7.44" length="11.24" shape="836.68,526.34 834.25,522.19 832.38,519.29 831.05,517.64 830.28,517.24"/>
    </edge>
    <edge id=":cluster_104472649_1362263119_684800917_8484285016_8484318434_8486322131_8486322133_2" function="internal">
        <lane id=":cluster_104472649_1362263119_684800917_8484285016_8484318434_8486322131_8486322133_2_0" index="0" disallow="pedestrian bicycle tram rail_urban rail rail_electric rail_fast ship" speed="27.78" length="27.56" shape="836.68,526.34 834.23,519.09 833.50,511.28 833.35,504.23 832.61,499.27"/>
    </edge>