<?xml version="1.0" encoding="UTF-8"?>
<routes xmlns:xsi="http://www.w3.org/2001/XMLSchema-instance" xsi:noNamespaceSchemaLocation="http://sumo.dlr.de/xsd/routes_file.xsd">

<vType id="noVar" speedFactor="1.0" speedDev="0.0"/>
<route id="route_Grant-Fourth-Forbes.107" edges="Grant-Fourth-Forbes Grant-Fourth-Forbes-2 Forbes-Grant-Ross Ross-Forbes-Fifth Ross-Fifth-Sixth Sixth-Ross-RHS" />
<vehicle type="noVar" depart="0" id="Grant-Fourth-Forbes.107" route="route_Grant-Fourth-Forbes.107" />
<route id="route_Ross-Fourth-Forbes.111" edges="Ross-Fourth-Forbes Ross-Forbes-Fifth Fifth-Ross-RHS" />
<vehicle type="noVar" depart="0" id="Ross-Fourth-Forbes.111" route="route_Ross-Fourth-Forbes.111" />
<route id="route_Ross-Seventh-Sixth.561" edges="Ross-Seventh-Sixth Ross-Sixth-Fifth Fifth-Ross-RHS" />
<vehicle type="noVar" depart="1" id="Ross-Seventh-Sixth.561" route="route_Ross-Seventh-Sixth.561" />
<route id="route_Sixth-RHS-Ross.27" edges="Sixth-RHS-Ross Ross-Sixth-Fifth Ross-Fifth-Forbes Forbes-Ross-Grant Forbes-Grant-WilliamPenn WilliamPenn-Forbes-Fourth" />
<vehicle type="noVar" depart="1" id="Sixth-RHS-Ross.27" route="route_Sixth-RHS-Ross.27" />
<route id="route_WilliamPenn-Seventh-Sixth.27" edges="WilliamPenn-Seventh-Sixth Sixth-WilliamPenn-Grant Sixth-Grant-Ross Ross-Sixth-Seventh" />
<vehicle type="noVar" depart="2" id="WilliamPenn-Seventh-Sixth.27" route="route_WilliamPenn-Seventh-Sixth.27" />
<route id="route_Ross-Fourth-Forbes.324" edges="Ross-Fourth-Forbes Forbes-Ross-Grant Forbes-Grant-WilliamPenn Forbes-WilliamPenn-Smithfield" />
<vehicle type="noVar" depart="2" id="Ross-Fourth-Forbes.324" route="route_Ross-Fourth-Forbes.324" />
<route id="route_Forbes-RHS-Ross.53" edges="Forbes-RHS-Ross Forbes-Ross-Grant Grant-Forbes-Fourth" />
<vehicle type="noVar" depart="3" id="Forbes-RHS-Ross.53" route="route_Forbes-RHS-Ross.53" />
<route id="route_Grant-Seventh-Sixth.498" edges="Grant-Seventh-Sixth Sixth-Grant-Ross Ross-Sixth-Fifth Ross-Fifth-Forbes Forbes-Ross-Grant Grant-Forbes-Fourth" />
<vehicle type="noVar" depart="4" id="Grant-Seventh-Sixth.498" route="route_Grant-Seventh-Sixth.498" />
<route id="route_Sixth-Smithfield-WilliamPenn.265" edges="Sixth-Smithfield-WilliamPenn Sixth-WilliamPenn-Grant Sixth-Grant-Ross Ross-Sixth-Fifth Ross-Fifth-Forbes Ross-Forbes-Fourth" />
<vehicle type="noVar" depart="4" id="Sixth-Smithfield-WilliamPenn.265" route="route_Sixth-Smithfield-WilliamPenn.265" />
<route id="route_Fifth-RHS-Ross.365" edges="Fifth-RHS-Ross Ross-Fifth-Forbes Forbes-Ross-Grant Grant-Forbes-Fourth" />
<vehicle type="noVar" depart="4" id="Fifth-RHS-Ross.365" route="route_Fifth-RHS-Ross.365" />
<route id="route_Forbes-RHS-Ross.147" edges="Forbes-RHS-Ross Forbes-Ross-Grant Grant-Forbes-Fourth" />
<vehicle type="noVar" depart="4" id="Forbes-RHS-Ross.147" route="route_Forbes-RHS-Ross.147" />
<route id="route_WilliamPenn-Seventh-Sixth.52" edges="WilliamPenn-Seventh-Sixth WilliamPenn-Sixth-Oliver WilliamPenn-Oliver-Fifth WilliamPenn-Fifth-Forbes Forbes-WilliamPenn-Smithfield" />
<vehicle type="noVar" depart="7" id="WilliamPenn-Seventh-Sixth.52" route="route_WilliamPenn-Seventh-Sixth.52" />
<route id="route_Ross-Fourth-Forbes.110" edges="Ross-Fourth-Forbes Forbes-Ross-RHS" />
<vehicle type="noVar" depart="7" id="Ross-Fourth-Forbes.110" route="route_Ross-Fourth-Forbes.110" />
<route id="route_WilliamPenn-Seventh-Sixth.236" edges="WilliamPenn-Seventh-Sixth WilliamPenn-Sixth-Oliver WilliamPenn-Oliver-Fifth WilliamPenn-Fifth-Forbes WilliamPenn-Forbes-Fourth" />
<vehicle type="noVar" depart="8" id="WilliamPenn-Seventh-Sixth.236" route="route_WilliamPenn-Seventh-Sixth.236" />
<route id="route_Oliver-Smithfield-WilliamPenn.185" edges="Oliver-Smithfield-WilliamPenn WilliamPenn-Oliver-Fifth WilliamPenn-Fifth-Forbes Forbes-WilliamPenn-Smithfield" />
<vehicle type="noVar" depart="8" id="Oliver-Smithfield-WilliamPenn.185" route="route_Oliver-Smithfield-WilliamPenn.185" />
<route id="route_Grant-Fourth-Forbes.472" edges="Grant-Fourth-Forbes Grant-Fourth-Forbes-2 Forbes-Grant-Ross Forbes-Ross-RHS" />
<vehicle type="noVar" depart="8" id="Grant-Fourth-Forbes.472" route="route_Grant-Fourth-Forbes.472" />
<route id="route_Sixth-RHS-Ross.287" edges="Sixth-RHS-Ross Sixth-Ross-Grant Sixth-Grant-WilliamPenn Sixth-WilliamPenn-Smithfield" />
<vehicle type="noVar" depart="8" id="Sixth-RHS-Ross.287" route="route_Sixth-RHS-Ross.287" />
<route id="route_Forbes-RHS-Ross.138" edges="Forbes-RHS-Ross Forbes-Ross-Grant Forbes-Grant-WilliamPenn WilliamPenn-Forbes-Fourth" />
<vehicle type="noVar" depart="9" id="Forbes-RHS-Ross.138" route="route_Forbes-RHS-Ross.138" />
<route id="route_Forbes-RHS-Ross.484" edges="Forbes-RHS-Ross Forbes-Ross-Grant Grant-Forbes-Fourth" />
<vehicle type="noVar" depart="9" id="Forbes-RHS-Ross.484" route="route_Forbes-RHS-Ross.484" />
<route id="route_WilliamPenn-Seventh-Sixth.282" edges="WilliamPenn-Seventh-Sixth Sixth-WilliamPenn-Grant Sixth-Grant-Ross Ross-Sixth-Seventh" />
<vehicle type="noVar" depart="11" id="WilliamPenn-Seventh-Sixth.282" route="route_WilliamPenn-Seventh-Sixth.282" />
<route id="route_Grant-Fourth-Forbes.422" edges="Grant-Fourth-Forbes Grant-Fourth-Forbes-2 Forbes-Grant-WilliamPenn Forbes-WilliamPenn-Smithfield" />
<vehicle type="noVar" depart="11" id="Grant-Fourth-Forbes.422" route="route_Grant-Fourth-Forbes.422" />
<route id="route_Ross-Seventh-Sixth.441" edges="Ross-Seventh-Sixth Ross-Sixth-Fifth Ross-Fifth-Forbes Ross-Forbes-Fourth" />
<vehicle type="noVar" depart="11" id="Ross-Seventh-Sixth.441" route="route_Ross-Seventh-Sixth.441" />
<route id="route_Grant-Fourth-Forbes.188" edges="Grant-Fourth-Forbes Grant-Fourth-Forbes-2 Forbes-Grant-Ross Forbes-Ross-RHS" />
<vehicle type="noVar" depart="13" id="Grant-Fourth-Forbes.188" route="route_Grant-Fourth-Forbes.188" />
<route id="route_Grant-Fourth-Forbes.363" edges="Grant-Fourth-Forbes Grant-Fourth-Forbes-2 Grant-Forbes-Fifth Grant-Fifth-Oliver Grant-Oliver-Sixth Grant-Sixth-Seventh" />
<vehicle type="noVar" depart="13" id="Grant-Fourth-Forbes.363" route="route_Grant-Fourth-Forbes.363" />
<route id="route_Sixth-RHS-Ross.494" edges="Sixth-RHS-Ross Sixth-Ross-Grant Grant-Sixth-Seventh" />
<vehicle type="noVar" depart="13" id="Sixth-RHS-Ross.494" route="route_Sixth-RHS-Ross.494" />
<route id="route_Ross-Fourth-Forbes.274" edges="Ross-Fourth-Forbes Forbes-Ross-RHS" />
<vehicle type="noVar" depart="13" id="Ross-Fourth-Forbes.274" route="route_Ross-Fourth-Forbes.274" />
<route id="route_WilliamPenn-Seventh-Sixth.175" edges="WilliamPenn-Seventh-Sixth WilliamPenn-Sixth-Oliver WilliamPenn-Oliver-Fifth Fifth-WilliamPenn-Smithfield" />
<vehicle type="noVar" depart="14" id="WilliamPenn-Seventh-Sixth.175" route="route_WilliamPenn-Seventh-Sixth.175" />
<route id="route_Forbes-RHS-Ross.131" edges="Forbes-RHS-Ross Ross-Forbes-Fifth Ross-Fifth-Sixth Sixth-Ross-Grant Grant-Sixth-Seventh" />
<vehicle type="noVar" depart="14" id="Forbes-RHS-Ross.131" route="route_Forbes-RHS-Ross.131" />
<route id="route_Grant-Seventh-Sixth.186" edges="Grant-Seventh-Sixth Sixth-Grant-WilliamPenn WilliamPenn-Sixth-Oliver WilliamPenn-Oliver-Fifth WilliamPenn-Fifth-Forbes WilliamPenn-Forbes-Fourth" />
<vehicle type="noVar" depart="15" id="Grant-Seventh-Sixth.186" route="route_Grant-Seventh-Sixth.186" />
<route id="route_Sixth-Smithfield-WilliamPenn.73" edges="Sixth-Smithfield-WilliamPenn Sixth-WilliamPenn-Grant Sixth-Grant-Ross Sixth-Ross-RHS" />
<vehicle type="noVar" depart="15" id="Sixth-Smithfield-WilliamPenn.73" route="route_Sixth-Smithfield-WilliamPenn.73" />
<route id="route_Oliver-Smithfield-WilliamPenn.310" edges="Oliver-Smithfield-WilliamPenn WilliamPenn-Oliver-Fifth WilliamPenn-Fifth-Forbes WilliamPenn-Forbes-Fourth" />
<vehicle type="noVar" depart="15" id="Oliver-Smithfield-WilliamPenn.310" route="route_Oliver-Smithfield-WilliamPenn.310" />
<route id="route_Forbes-RHS-Ross.406" edges="Forbes-RHS-Ross Ross-Forbes-Fourth" />
<vehicle type="noVar" depart="15" id="Forbes-RHS-Ross.406" route="route_Forbes-RHS-Ross.406" />
<route id="route_WilliamPenn-Seventh-Sixth.66" edges="WilliamPenn-Seventh-Sixth WilliamPenn-Sixth-Oliver WilliamPenn-Oliver-Fifth WilliamPenn-Fifth-Forbes WilliamPenn-Forbes-Fourth" />
<vehicle type="noVar" depart="16" id="WilliamPenn-Seventh-Sixth.66" route="route_WilliamPenn-Seventh-Sixth.66" />
<route id="route_Sixth-Smithfield-WilliamPenn.259" edges="Sixth-Smithfield-WilliamPenn WilliamPenn-Sixth-Oliver WilliamPenn-Oliver-Fifth WilliamPenn-Fifth-Forbes WilliamPenn-Forbes-Fourth" />
<vehicle type="noVar" depart="16" id="Sixth-Smithfield-WilliamPenn.259" route="route_Sixth-Smithfield-WilliamPenn.259" />
<route id="route_Grant-Fifth-Oliver.18" edges="Grant-Fifth-Oliver Grant-Oliver-Sixth Sixth-Grant-WilliamPenn Sixth-WilliamPenn-Smithfield" />
<vehicle type="noVar" depart="16" id="Grant-Fifth-Oliver.18" route="route_Grant-Fifth-Oliver.18" />
<route id="route_Forbes-RHS-Ross.284" edges="Forbes-RHS-Ross Forbes-Ross-Grant Forbes-Grant-WilliamPenn WilliamPenn-Forbes-Fourth" />
<vehicle type="noVar" depart="16" id="Forbes-RHS-Ross.284" route="route_Forbes-RHS-Ross.284" />
<route id="route_Ross-Seventh-Sixth.559" edges="Ross-Seventh-Sixth Sixth-Ross-RHS" />
<vehicle type="noVar" depart="17" id="Ross-Seventh-Sixth.559" route="route_Ross-Seventh-Sixth.559" />
<route id="route_Fifth-RHS-Ross.154" edges="Fifth-RHS-Ross Fifth-Ross-Grant Fifth-Ross-Grant-2 Fifth-Grant-WilliamPenn Fifth-WilliamPenn-Smithfield" />
<vehicle type="noVar" depart="17" id="Fifth-RHS-Ross.154" route="route_Fifth-RHS-Ross.154" />
<route id="route_Grant-Fourth-Forbes.256" edges="Grant-Fourth-Forbes Grant-Fourth-Forbes-2 Grant-Forbes-Fifth Grant-Fifth-Oliver Grant-Oliver-Sixth Grant-Sixth-Seventh" />
<vehicle type="noVar" depart="21" id="Grant-Fourth-Forbes.256" route="route_Grant-Fourth-Forbes.256" />
<route id="route_Ross-Seventh-Sixth.375" edges="Ross-Seventh-Sixth Ross-Sixth-Fifth Ross-Fifth-Forbes Ross-Forbes-Fourth" />
<vehicle type="noVar" depart="21" id="Ross-Seventh-Sixth.375" route="route_Ross-Seventh-Sixth.375" />
<route id="route_Sixth-RHS-Ross.446" edges="Sixth-RHS-Ross Sixth-Ross-Grant Grant-Sixth-Seventh" />
<vehicle type="noVar" depart="22" id="Sixth-RHS-Ross.446" route="route_Sixth-RHS-Ross.446" />
<route id="route_Ross-Fourth-Forbes.407" edges="Ross-Fourth-Forbes Forbes-Ross-RHS" />
<vehicle type="noVar" depart="22" id="Ross-Fourth-Forbes.407" route="route_Ross-Fourth-Forbes.407" />
<route id="route_WilliamPenn-Seventh-Sixth.43" edges="WilliamPenn-Seventh-Sixth Sixth-WilliamPenn-Smithfield" />
<vehicle type="noVar" depart="23" id="WilliamPenn-Seventh-Sixth.43" route="route_WilliamPenn-Seventh-Sixth.43" />
<route id="route_Grant-Fourth-Forbes.488" edges="Grant-Fourth-Forbes Grant-Fourth-Forbes-2 Forbes-Grant-WilliamPenn Forbes-WilliamPenn-Smithfield" />
<vehicle type="noVar" depart="23" id="Grant-Fourth-Forbes.488" route="route_Grant-Fourth-Forbes.488" />
<route id="route_Sixth-RHS-Ross.25" edges="Sixth-RHS-Ross Sixth-Ross-Grant Grant-Sixth-Seventh" />
<vehicle type="noVar" depart="23" id="Sixth-RHS-Ross.25" route="route_Sixth-RHS-Ross.25" />
<route id="route_WilliamPenn-Seventh-Sixth.319" edges="WilliamPenn-Seventh-Sixth Sixth-WilliamPenn-Grant Sixth-Grant-Ross Sixth-Ross-RHS" />
<vehicle type="noVar" depart="24" id="WilliamPenn-Seventh-Sixth.319" route="route_WilliamPenn-Seventh-Sixth.319" />
<route id="route_Grant-Fourth-Forbes.327" edges="Grant-Fourth-Forbes Grant-Fourth-Forbes-2 Grant-Forbes-Fifth Grant-Fifth-Oliver Grant-Oliver-Sixth Grant-Sixth-Seventh" />
<vehicle type="noVar" depart="24" id="Grant-Fourth-Forbes.327" route="route_Grant-Fourth-Forbes.327" />
<route id="route_Fifth-RHS-Ross.31" edges="Fifth-RHS-Ross Fifth-Ross-Grant Fifth-Ross-Grant-2 Fifth-Grant-WilliamPenn Fifth-WilliamPenn-Smithfield" />
<vehicle type="noVar" depart="24" id="Fifth-RHS-Ross.31" route="route_Fifth-RHS-Ross.31" />
<route id="route_Ross-Fourth-Forbes.35" edges="Ross-Fourth-Forbes Ross-Forbes-Fifth Ross-Fifth-Sixth Sixth-Ross-RHS" />
<vehicle type="noVar" depart="24" id="Ross-Fourth-Forbes.35" route="route_Ross-Fourth-Forbes.35" />
<route id="route_Fifth-RHS-Ross.187" edges="Fifth-RHS-Ross Fifth-Ross-Grant Fifth-Ross-Grant-2 Fifth-Grant-WilliamPenn Fifth-WilliamPenn-Smithfield" />
<vehicle type="noVar" depart="25" id="Fifth-RHS-Ross.187" route="route_Fifth-RHS-Ross.187" />
<route id="route_Ross-Fourth-Forbes.521" edges="Ross-Fourth-Forbes Forbes-Ross-RHS" />
<vehicle type="noVar" depart="25" id="Ross-Fourth-Forbes.521" route="route_Ross-Fourth-Forbes.521" />
<route id="route_Sixth-Smithfield-WilliamPenn.228" edges="Sixth-Smithfield-WilliamPenn WilliamPenn-Sixth-Oliver WilliamPenn-Oliver-Fifth Fifth-WilliamPenn-Smithfield" />
<vehicle type="noVar" depart="26" id="Sixth-Smithfield-WilliamPenn.228" route="route_Sixth-Smithfield-WilliamPenn.228" />
<route id="route_Ross-Fourth-Forbes.152" edges="Ross-Fourth-Forbes Ross-Forbes-Fifth Ross-Fifth-Sixth Sixth-Ross-RHS" />
<vehicle type="noVar" depart="26" id="Ross-Fourth-Forbes.152" route="route_Ross-Fourth-Forbes.152" />
<route id="route_Grant-Fourth-Forbes.195" edges="Grant-Fourth-Forbes Grant-Fourth-Forbes-2 Forbes-Grant-Ross Forbes-Ross-RHS" />
<vehicle type="noVar" depart="27" id="Grant-Fourth-Forbes.195" route="route_Grant-Fourth-Forbes.195" />
<route id="route_Ross-Seventh-Sixth.13" edges="Ross-Seventh-Sixth Ross-Sixth-Fifth Fifth-Ross-Grant Fifth-Ross-Grant-2 Fifth-Grant-WilliamPenn Fifth-WilliamPenn-Smithfield" />
<vehicle type="noVar" depart="29" id="Ross-Seventh-Sixth.13" route="route_Ross-Seventh-Sixth.13" />
<route id="route_Fifth-RHS-Ross.128" edges="Fifth-RHS-Ross Fifth-Ross-Grant Fifth-Ross-Grant-2 Fifth-Grant-WilliamPenn Fifth-WilliamPenn-Smithfield" />
<vehicle type="noVar" depart="29" id="Fifth-RHS-Ross.128" route="route_Fifth-RHS-Ross.128" />
<route id="route_Forbes-RHS-Ross.470" edges="Forbes-RHS-Ross Forbes-Ross-Grant Grant-Forbes-Fourth" />
<vehicle type="noVar" depart="29" id="Forbes-RHS-Ross.470" route="route_Forbes-RHS-Ross.470" />
<route id="route_WilliamPenn-Seventh-Sixth.271" edges="WilliamPenn-Seventh-Sixth WilliamPenn-Sixth-Oliver WilliamPenn-Oliver-Fifth WilliamPenn-Fifth-Forbes WilliamPenn-Forbes-Fourth" />
<vehicle type="noVar" depart="30" id="WilliamPenn-Seventh-Sixth.271" route="route_WilliamPenn-Seventh-Sixth.271" />
<route id="route_Forbes-RHS-Ross.244" edges="Forbes-RHS-Ross Forbes-Ross-Grant Grant-Forbes-Fourth" />
<vehicle type="noVar" depart="30" id="Forbes-RHS-Ross.244" route="route_Forbes-RHS-Ross.244" />
<route id="route_Ross-Fourth-Forbes.530" edges="Ross-Fourth-Forbes Forbes-Ross-RHS" />
<vehicle type="noVar" depart="30" id="Ross-Fourth-Forbes.530" route="route_Ross-Fourth-Forbes.530" />
<route id="route_Sixth-Smithfield-WilliamPenn.323" edges="Sixth-Smithfield-WilliamPenn Sixth-WilliamPenn-Grant Grant-Sixth-Seventh" />
<vehicle type="noVar" depart="31" id="Sixth-Smithfield-WilliamPenn.323" route="route_Sixth-Smithfield-WilliamPenn.323" />
<route id="route_Grant-Fourth-Forbes.61" edges="Grant-Fourth-Forbes Grant-Fourth-Forbes-2 Grant-Forbes-Fifth Grant-Fifth-Oliver Grant-Oliver-Sixth Grant-Sixth-Seventh" />
<vehicle type="noVar" depart="31" id="Grant-Fourth-Forbes.61" route="route_Grant-Fourth-Forbes.61" />
<route id="route_Forbes-RHS-Ross.309" edges="Forbes-RHS-Ross Forbes-Ross-Grant Forbes-Grant-WilliamPenn Forbes-WilliamPenn-Smithfield" />
<vehicle type="noVar" depart="31" id="Forbes-RHS-Ross.309" route="route_Forbes-RHS-Ross.309" />
<route id="route_Ross-Fourth-Forbes.556" edges="Ross-Fourth-Forbes Ross-Forbes-Fifth Ross-Fifth-Sixth Ross-Sixth-Seventh" />
<vehicle type="noVar" depart="32" id="Ross-Fourth-Forbes.556" route="route_Ross-Fourth-Forbes.556" />
<route id="route_Grant-Seventh-Sixth.512" edges="Grant-Seventh-Sixth Sixth-Grant-Ross Ross-Sixth-Fifth Ross-Fifth-Forbes Forbes-Ross-Grant Grant-Forbes-Fourth" />
<vehicle type="noVar" depart="33" id="Grant-Seventh-Sixth.512" route="route_Grant-Seventh-Sixth.512" />
<route id="route_Ross-Seventh-Sixth.5" edges="Ross-Seventh-Sixth Ross-Sixth-Fifth Ross-Fifth-Forbes Ross-Forbes-Fourth" />
<vehicle type="noVar" depart="33" id="Ross-Seventh-Sixth.5" route="route_Ross-Seventh-Sixth.5" />
<route id="route_Sixth-RHS-Ross.109" edges="Sixth-RHS-Ross Sixth-Ross-Grant Grant-Sixth-Seventh" />
<vehicle type="noVar" depart="34" id="Sixth-RHS-Ross.109" route="route_Sixth-RHS-Ross.109" />
<route id="route_Sixth-Smithfield-WilliamPenn.65" edges="Sixth-Smithfield-WilliamPenn Sixth-WilliamPenn-Grant Sixth-Grant-Ross Ross-Sixth-Seventh" />
<vehicle type="noVar" depart="35" id="Sixth-Smithfield-WilliamPenn.65" route="route_Sixth-Smithfield-WilliamPenn.65" />
<route id="route_Sixth-Smithfield-WilliamPenn.361" edges="Sixth-Smithfield-WilliamPenn Sixth-WilliamPenn-Grant Sixth-Grant-Ross Sixth-Ross-RHS" />
<vehicle type="noVar" depart="35" id="Sixth-Smithfield-WilliamPenn.361" route="route_Sixth-Smithfield-WilliamPenn.361" />
<route id="route_Ross-Seventh-Sixth.323" edges="Ross-Seventh-Sixth Ross-Sixth-Fifth Ross-Fifth-Forbes Forbes-Ross-Grant Grant-Forbes-Fourth" />
<vehicle type="noVar" depart="35" id="Ross-Seventh-Sixth.323" route="route_Ross-Seventh-Sixth.323" />
<route id="route_Grant-Seventh-Sixth.375" edges="Grant-Seventh-Sixth Grant-Sixth-Oliver Grant-Oliver-Fifth Grant-Fifth-Forbes Grant-Forbes-Fourth" />
<vehicle type="noVar" depart="36" id="Grant-Seventh-Sixth.375" route="route_Grant-Seventh-Sixth.375" />
<route id="route_Sixth-Smithfield-WilliamPenn.238" edges="Sixth-Smithfield-WilliamPenn Sixth-WilliamPenn-Grant Sixth-Grant-Ross Sixth-Ross-RHS" />
<vehicle type="noVar" depart="36" id="Sixth-Smithfield-WilliamPenn.238" route="route_Sixth-Smithfield-WilliamPenn.238" />
<route id="route_Grant-Seventh-Sixth.301" edges="Grant-Seventh-Sixth Grant-Sixth-Oliver Grant-Oliver-Fifth Grant-Fifth-Forbes Grant-Forbes-Fourth" />
<vehicle type="noVar" depart="37" id="Grant-Seventh-Sixth.301" route="route_Grant-Seventh-Sixth.301" />
<route id="route_WilliamPenn-Seventh-Sixth.144" edges="WilliamPenn-Seventh-Sixth WilliamPenn-Sixth-Oliver WilliamPenn-Oliver-Fifth WilliamPenn-Fifth-Forbes Forbes-WilliamPenn-Smithfield" />
<vehicle type="noVar" depart="37" id="WilliamPenn-Seventh-Sixth.144" route="route_WilliamPenn-Seventh-Sixth.144" />
<route id="route_Grant-Fifth-Oliver.3" edges="Grant-Fifth-Oliver Grant-Oliver-Sixth Sixth-Grant-Ross Ross-Sixth-Fifth Fifth-Ross-RHS" />
<vehicle type="noVar" depart="40" id="Grant-Fifth-Oliver.3" route="route_Grant-Fifth-Oliver.3" />
<route id="route_Ross-Seventh-Sixth.502" edges="Ross-Seventh-Sixth Sixth-Ross-Grant Grant-Sixth-Seventh" />
<vehicle type="noVar" depart="42" id="Ross-Seventh-Sixth.502" route="route_Ross-Seventh-Sixth.502" />
<route id="route_Grant-Fourth-Forbes.431" edges="Grant-Fourth-Forbes Grant-Fourth-Forbes-2 Forbes-Grant-WilliamPenn Forbes-WilliamPenn-Smithfield" />
<vehicle type="noVar" depart="43" id="Grant-Fourth-Forbes.431" route="route_Grant-Fourth-Forbes.431" />
<route id="route_Forbes-RHS-Ross.223" edges="Forbes-RHS-Ross Forbes-Ross-Grant Forbes-Grant-WilliamPenn WilliamPenn-Forbes-Fourth" />
<vehicle type="noVar" depart="44" id="Forbes-RHS-Ross.223" route="route_Forbes-RHS-Ross.223" />
<route id="route_Grant-Seventh-Sixth.570" edges="Grant-Seventh-Sixth Grant-Sixth-Oliver Grant-Oliver-Fifth Grant-Fifth-Forbes Grant-Forbes-Fourth" />
<vehicle type="noVar" depart="45" id="Grant-Seventh-Sixth.570" route="route_Grant-Seventh-Sixth.570" />
<route id="route_Ross-Seventh-Sixth.0" edges="Ross-Seventh-Sixth Ross-Sixth-Fifth Fifth-Ross-RHS" />
<vehicle type="noVar" depart="46" id="Ross-Seventh-Sixth.0" route="route_Ross-Seventh-Sixth.0" />
<route id="route_Ross-Seventh-Sixth.268" edges="Ross-Seventh-Sixth Ross-Sixth-Fifth Ross-Fifth-Forbes Forbes-Ross-Grant Forbes-Grant-WilliamPenn Forbes-WilliamPenn-Smithfield" />
<vehicle type="noVar" depart="46" id="Ross-Seventh-Sixth.268" route="route_Ross-Seventh-Sixth.268" />
<route id="route_Oliver-Smithfield-WilliamPenn.210" edges="Oliver-Smithfield-WilliamPenn WilliamPenn-Oliver-Fifth Fifth-WilliamPenn-Smithfield" />
<vehicle type="noVar" depart="47" id="Oliver-Smithfield-WilliamPenn.210" route="route_Oliver-Smithfield-WilliamPenn.210" />
<route id="route_WilliamPenn-Seventh-Sixth.127" edges="WilliamPenn-Seventh-Sixth WilliamPenn-Sixth-Oliver WilliamPenn-Oliver-Fifth WilliamPenn-Fifth-Forbes WilliamPenn-Forbes-Fourth" />
<vehicle type="noVar" depart="48" id="WilliamPenn-Seventh-Sixth.127" route="route_WilliamPenn-Seventh-Sixth.127" />
<route id="route_Grant-Fourth-Forbes.456" edges="Grant-Fourth-Forbes Grant-Fourth-Forbes-2 Forbes-Grant-Ross Ross-Forbes-Fifth Fifth-Ross-RHS" />
<vehicle type="noVar" depart="48" id="Grant-Fourth-Forbes.456" route="route_Grant-Fourth-Forbes.456" />
<route id="route_Ross-Seventh-Sixth.245" edges="Ross-Seventh-Sixth Ross-Sixth-Fifth Fifth-Ross-Grant Fifth-Ross-Grant-2 Fifth-Grant-WilliamPenn Fifth-WilliamPenn-Smithfield" />
<vehicle type="noVar" depart="49" id="Ross-Seventh-Sixth.245" route="route_Ross-Seventh-Sixth.245" />
<route id="route_WilliamPenn-Seventh-Sixth.130" edges="WilliamPenn-Seventh-Sixth WilliamPenn-Sixth-Oliver WilliamPenn-Oliver-Fifth WilliamPenn-Fifth-Forbes WilliamPenn-Forbes-Fourth" />
<vehicle type="noVar" depart="50" id="WilliamPenn-Seventh-Sixth.130" route="route_WilliamPenn-Seventh-Sixth.130" />
<route id="route_Sixth-RHS-Ross.94" edges="Sixth-RHS-Ross Ross-Sixth-Fifth Ross-Fifth-Forbes Forbes-Ross-Grant Forbes-Grant-WilliamPenn WilliamPenn-Forbes-Fourth" />
<vehicle type="noVar" depart="50" id="Sixth-RHS-Ross.94" route="route_Sixth-RHS-Ross.94" />
<route id="route_Ross-Fourth-Forbes.103" edges="Ross-Fourth-Forbes Ross-Forbes-Fifth Fifth-Ross-RHS" />
<vehicle type="noVar" depart="50" id="Ross-Fourth-Forbes.103" route="route_Ross-Fourth-Forbes.103" />
<route id="route_Ross-Fourth-Forbes.555" edges="Ross-Fourth-Forbes Forbes-Ross-RHS" />
<vehicle type="noVar" depart="50" id="Ross-Fourth-Forbes.555" route="route_Ross-Fourth-Forbes.555" />
<route id="route_Grant-Seventh-Sixth.380" edges="Grant-Seventh-Sixth Sixth-Grant-WilliamPenn WilliamPenn-Sixth-Oliver WilliamPenn-Oliver-Fifth WilliamPenn-Fifth-Forbes WilliamPenn-Forbes-Fourth" />
<vehicle type="noVar" depart="51" id="Grant-Seventh-Sixth.380" route="route_Grant-Seventh-Sixth.380" />
<route id="route_WilliamPenn-Seventh-Sixth.60" edges="WilliamPenn-Seventh-Sixth Sixth-WilliamPenn-Smithfield" />
<vehicle type="noVar" depart="51" id="WilliamPenn-Seventh-Sixth.60" route="route_WilliamPenn-Seventh-Sixth.60" />
<route id="route_Sixth-Smithfield-WilliamPenn.289" edges="Sixth-Smithfield-WilliamPenn Sixth-WilliamPenn-Grant Sixth-Grant-Ross Sixth-Ross-RHS" />
<vehicle type="noVar" depart="51" id="Sixth-Smithfield-WilliamPenn.289" route="route_Sixth-Smithfield-WilliamPenn.289" />
<route id="route_Grant-Fifth-Oliver.32" edges="Grant-Fifth-Oliver Grant-Oliver-Sixth Grant-Sixth-Seventh" />
<vehicle type="noVar" depart="51" id="Grant-Fifth-Oliver.32" route="route_Grant-Fifth-Oliver.32" />
<route id="route_Fifth-RHS-Ross.195" edges="Fifth-RHS-Ross Ross-Fifth-Forbes Forbes-Ross-Grant Grant-Forbes-Fourth" />
<vehicle type="noVar" depart="51" id="Fifth-RHS-Ross.195" route="route_Fifth-RHS-Ross.195" />
<route id="route_Ross-Fourth-Forbes.133" edges="Ross-Fourth-Forbes Forbes-Ross-RHS" />
<vehicle type="noVar" depart="52" id="Ross-Fourth-Forbes.133" route="route_Ross-Fourth-Forbes.133" />
<route id="route_Grant-Seventh-Sixth.521" edges="Grant-Seventh-Sixth Grant-Sixth-Oliver Grant-Oliver-Fifth Grant-Fifth-Forbes Grant-Forbes-Fourth" />
<vehicle type="noVar" depart="54" id="Grant-Seventh-Sixth.521" route="route_Grant-Seventh-Sixth.521" />
<route id="route_WilliamPenn-Seventh-Sixth.218" edges="WilliamPenn-Seventh-Sixth Sixth-WilliamPenn-Smithfield" />
<vehicle type="noVar" depart="54" id="WilliamPenn-Seventh-Sixth.218" route="route_WilliamPenn-Seventh-Sixth.218" />
<route id="route_Grant-Fourth-Forbes.122" edges="Grant-Fourth-Forbes Grant-Fourth-Forbes-2 Grant-Forbes-Fifth Grant-Fifth-Oliver Grant-Oliver-Sixth Grant-Sixth-Seventh" />
<vehicle type="noVar" depart="54" id="Grant-Fourth-Forbes.122" route="route_Grant-Fourth-Forbes.122" />
<route id="route_Sixth-RHS-Ross.288" edges="Sixth-RHS-Ross Sixth-Ross-Grant Sixth-Grant-WilliamPenn Sixth-WilliamPenn-Smithfield" />
<vehicle type="noVar" depart="54" id="Sixth-RHS-Ross.288" route="route_Sixth-RHS-Ross.288" />
<route id="route_Forbes-RHS-Ross.192" edges="Forbes-RHS-Ross Forbes-Ross-Grant Forbes-Grant-WilliamPenn WilliamPenn-Forbes-Fourth" />
<vehicle type="noVar" depart="54" id="Forbes-RHS-Ross.192" route="route_Forbes-RHS-Ross.192" />
<route id="route_Forbes-RHS-Ross.202" edges="Forbes-RHS-Ross Forbes-Ross-Grant Grant-Forbes-Fourth" />
<vehicle type="noVar" depart="55" id="Forbes-RHS-Ross.202" route="route_Forbes-RHS-Ross.202" />
<route id="route_Oliver-Smithfield-WilliamPenn.367" edges="Oliver-Smithfield-WilliamPenn Oliver-WilliamPenn-Grant Grant-Oliver-Sixth Grant-Sixth-Seventh" />
<vehicle type="noVar" depart="57" id="Oliver-Smithfield-WilliamPenn.367" route="route_Oliver-Smithfield-WilliamPenn.367" />
<route id="route_Fifth-Smithfield-WilliamPenn.61" edges="Fifth-Smithfield-WilliamPenn Fifth-WilliamPenn-Grant Fifth-Grant-Ross Fifth-Grant-Ross-2 Fifth-Ross-RHS" />
<vehicle type="noVar" depart="57" id="Fifth-Smithfield-WilliamPenn.61" route="route_Fifth-Smithfield-WilliamPenn.61" />
<route id="route_Grant-Fourth-Forbes.326" edges="Grant-Fourth-Forbes Grant-Fourth-Forbes-2 Forbes-Grant-Ross Ross-Forbes-Fifth Ross-Fifth-Sixth Sixth-Ross-RHS" />
<vehicle type="noVar" depart="57" id="Grant-Fourth-Forbes.326" route="route_Grant-Fourth-Forbes.326" />
<route id="route_Grant-Seventh-Sixth.374" edges="Grant-Seventh-Sixth Sixth-Grant-Ross Ross-Sixth-Fifth Ross-Fifth-Forbes Forbes-Ross-RHS" />
<vehicle type="noVar" depart="58" id="Grant-Seventh-Sixth.374" route="route_Grant-Seventh-Sixth.374" />
<route id="route_Ross-Seventh-Sixth.423" edges="Ross-Seventh-Sixth Sixth-Ross-Grant Grant-Sixth-Seventh" />
<vehicle type="noVar" depart="58" id="Ross-Seventh-Sixth.423" route="route_Ross-Seventh-Sixth.423" />
<route id="route_Sixth-RHS-Ross.119" edges="Sixth-RHS-Ross Ross-Sixth-Seventh" />
<vehicle type="noVar" depart="58" id="Sixth-RHS-Ross.119" route="route_Sixth-RHS-Ross.119" />
<route id="route_Oliver-Smithfield-WilliamPenn.307" edges="Oliver-Smithfield-WilliamPenn Oliver-WilliamPenn-Grant Grant-Oliver-Sixth Grant-Sixth-Seventh" />
<vehicle type="noVar" depart="59" id="Oliver-Smithfield-WilliamPenn.307" route="route_Oliver-Smithfield-WilliamPenn.307" />
<route id="route_Forbes-RHS-Ross.219" edges="Forbes-RHS-Ross Forbes-Ross-Grant Grant-Forbes-Fourth" />
<vehicle type="noVar" depart="59" id="Forbes-RHS-Ross.219" route="route_Forbes-RHS-Ross.219" />
<route id="route_Ross-Seventh-Sixth.513" edges="Ross-Seventh-Sixth Sixth-Ross-RHS" />
<vehicle type="noVar" depart="64" id="Ross-Seventh-Sixth.513" route="route_Ross-Seventh-Sixth.513" />
<route id="route_Sixth-Smithfield-WilliamPenn.190" edges="Sixth-Smithfield-WilliamPenn Sixth-WilliamPenn-Grant Grant-Sixth-Seventh" />
<vehicle type="noVar" depart="65" id="Sixth-Smithfield-WilliamPenn.190" route="route_Sixth-Smithfield-WilliamPenn.190" />
<route id="route_Oliver-Smithfield-WilliamPenn.265" edges="Oliver-Smithfield-WilliamPenn WilliamPenn-Oliver-Fifth Fifth-WilliamPenn-Grant Grant-Fifth-Forbes Grant-Forbes-Fourth" />
<vehicle type="noVar" depart="65" id="Oliver-Smithfield-WilliamPenn.265" route="route_Oliver-Smithfield-WilliamPenn.265" />
<route id="route_Ross-Seventh-Sixth.104" edges="Ross-Seventh-Sixth Sixth-Ross-Grant Grant-Sixth-Seventh" />
<vehicle type="noVar" depart="65" id="Ross-Seventh-Sixth.104" route="route_Ross-Seventh-Sixth.104" />
<route id="route_Sixth-RHS-Ross.206" edges="Sixth-RHS-Ross Sixth-Ross-Grant Grant-Sixth-Seventh" />
<vehicle type="noVar" depart="66" id="Sixth-RHS-Ross.206" route="route_Sixth-RHS-Ross.206" />
<route id="route_Fifth-Smithfield-WilliamPenn.94" edges="Fifth-Smithfield-WilliamPenn Fifth-WilliamPenn-Grant Fifth-Grant-Ross Fifth-Grant-Ross-2 Fifth-Ross-RHS" />
<vehicle type="noVar" depart="68" id="Fifth-Smithfield-WilliamPenn.94" route="route_Fifth-Smithfield-WilliamPenn.94" />
<route id="route_Fifth-RHS-Ross.101" edges="Fifth-RHS-Ross Ross-Fifth-Forbes Forbes-Ross-Grant Forbes-Grant-WilliamPenn WilliamPenn-Forbes-Fourth" />
<vehicle type="noVar" depart="68" id="Fifth-RHS-Ross.101" route="route_Fifth-RHS-Ross.101" />
<route id="route_Grant-Fourth-Forbes.594" edges="Grant-Fourth-Forbes Grant-Fourth-Forbes-2 Grant-Forbes-Fifth Grant-Fifth-Oliver Grant-Oliver-Sixth Grant-Sixth-Seventh" />
<vehicle type="noVar" depart="69" id="Grant-Fourth-Forbes.594" route="route_Grant-Fourth-Forbes.594" />
<route id="route_Sixth-Smithfield-WilliamPenn.53" edges="Sixth-Smithfield-WilliamPenn Sixth-WilliamPenn-Grant Sixth-Grant-Ross Sixth-Ross-RHS" />
<vehicle type="noVar" depart="70" id="Sixth-Smithfield-WilliamPenn.53" route="route_Sixth-Smithfield-WilliamPenn.53" />
<route id="route_Oliver-Smithfield-WilliamPenn.242" edges="Oliver-Smithfield-WilliamPenn WilliamPenn-Oliver-Fifth Fifth-WilliamPenn-Grant Grant-Fifth-Forbes Grant-Forbes-Fourth" />
<vehicle type="noVar" depart="70" id="Oliver-Smithfield-WilliamPenn.242" route="route_Oliver-Smithfield-WilliamPenn.242" />
<route id="route_Sixth-RHS-Ross.214" edges="Sixth-RHS-Ross Sixth-Ross-Grant Sixth-Grant-WilliamPenn Sixth-WilliamPenn-Smithfield" />
<vehicle type="noVar" depart="70" id="Sixth-RHS-Ross.214" route="route_Sixth-RHS-Ross.214" />
<route id="route_Oliver-Smithfield-WilliamPenn.290" edges="Oliver-Smithfield-WilliamPenn Oliver-WilliamPenn-Grant Grant-Oliver-Sixth Grant-Sixth-Seventh" />
<vehicle type="noVar" depart="71" id="Oliver-Smithfield-WilliamPenn.290" route="route_Oliver-Smithfield-WilliamPenn.290" />
<route id="route_Sixth-RHS-Ross.208" edges="Sixth-RHS-Ross Sixth-Ross-Grant Grant-Sixth-Seventh" />
<vehicle type="noVar" depart="71" id="Sixth-RHS-Ross.208" route="route_Sixth-RHS-Ross.208" />