<?xml version="1.0" encoding="UTF-8"?>
<routes xmlns:xsi="http://www.w3.org/2001/XMLSchema-instance" xsi:noNamespaceSchemaLocation="http://sumo.dlr.de/xsd/routes_file.xsd">

<vType id="noVar" speedFactor="1.0" speedDev="0.0"/>
<trip type="noVar" depart="0" id="Oliver-Smithfield-WilliamPenn.49" from="Oliver-Smithfield-WilliamPenn" to="WilliamPenn-Forbes-Fourth" />
<trip type="noVar" depart="0" id="Forbes-RHS-Ross.396" from="Forbes-RHS-Ross" to="Grant-Forbes-Fourth" />
<trip type="noVar" depart="1" id="Grant-Seventh-Sixth.429" from="Grant-Seventh-Sixth" to="Forbes-Ross-RHS" />
<trip type="noVar" depart="1" id="Sixth-Smithfield-WilliamPenn.364" from="Sixth-Smithfield-WilliamPenn" to="Sixth-Ross-RHS" />
<trip type="noVar" depart="2" id="Grant-Seventh-Sixth.50" from="Grant-Seventh-Sixth" to="Grant-Forbes-Fourth" />
<trip type="noVar" depart="2" id="Sixth-RHS-Ross.483" from="Sixth-RHS-Ross" to="Forbes-Ross-RHS" />
<trip type="noVar" depart="2" id="Fifth-RHS-Ross.214" from="Fifth-RHS-Ross" to="Grant-Forbes-Fourth" />
<trip type="noVar" depart="4" id="Sixth-RHS-Ross.397" from="Sixth-RHS-Ross" to="Fifth-Ross-RHS" />
<trip type="noVar" depart="6" id="Fifth-RHS-Ross.125" from="Fifth-RHS-Ross" to="Fifth-WilliamPenn-Smithfield" />
<trip type="noVar" depart="7" id="Grant-Fourth-Forbes.209" from="Grant-Fourth-Forbes" to="Grant-Sixth-Seventh" />
<trip type="noVar" depart="8" id="Ross-Fourth-Forbes.422" from="Ross-Fourth-Forbes" to="Forbes-Ross-RHS" />
<trip type="noVar" depart="8" id="Ross-Fourth-Forbes.527" from="Ross-Fourth-Forbes" to="Sixth-Ross-RHS" />
<trip type="noVar" depart="9" id="Ross-Seventh-Sixth.639" from="Ross-Seventh-Sixth" to="Fifth-Ross-RHS" />
<trip type="noVar" depart="10" id="Ross-Fourth-Forbes.161" from="Ross-Fourth-Forbes" to="Forbes-Ross-RHS" />
<trip type="noVar" depart="11" id="Forbes-RHS-Ross.184" from="Forbes-RHS-Ross" to="Grant-Forbes-Fourth" />
<trip type="noVar" depart="11" id="Forbes-RHS-Ross.336" from="Forbes-RHS-Ross" to="Ross-Forbes-Fourth" />
<trip type="noVar" depart="11" id="Ross-Fourth-Forbes.598" from="Ross-Fourth-Forbes" to="Forbes-Ross-RHS" />
<trip type="noVar" depart="12" id="Fifth-Smithfield-WilliamPenn.95" from="Fifth-Smithfield-WilliamPenn" to="Fifth-Ross-RHS" />
<trip type="noVar" depart="12" id="Forbes-RHS-Ross.124" from="Forbes-RHS-Ross" to="WilliamPenn-Forbes-Fourth" />
<trip type="noVar" depart="13" id="Ross-Seventh-Sixth.582" from="Ross-Seventh-Sixth" to="Grant-Sixth-Seventh" />
<trip type="noVar" depart="13" id="Sixth-RHS-Ross.33" from="Sixth-RHS-Ross" to="Ross-Sixth-Seventh" />
<trip type="noVar" depart="13" id="Sixth-RHS-Ross.82" from="Sixth-RHS-Ross" to="Grant-Forbes-Fourth" />
<trip type="noVar" depart="14" id="Ross-Seventh-Sixth.620" from="Ross-Seventh-Sixth" to="Forbes-Ross-RHS" />
<trip type="noVar" depart="14" id="Forbes-RHS-Ross.454" from="Forbes-RHS-Ross" to="WilliamPenn-Forbes-Fourth" />
<trip type="noVar" depart="14" id="Ross-Fourth-Forbes.234" from="Ross-Fourth-Forbes" to="Grant-Forbes-Fourth" />
<trip type="noVar" depart="15" id="Oliver-Smithfield-WilliamPenn.28" from="Oliver-Smithfield-WilliamPenn" to="Grant-Sixth-Seventh" />
<trip type="noVar" depart="15" id="Ross-Seventh-Sixth.255" from="Ross-Seventh-Sixth" to="Sixth-WilliamPenn-Smithfield" />
<trip type="noVar" depart="15" id="Forbes-RHS-Ross.290" from="Forbes-RHS-Ross" to="Forbes-WilliamPenn-Smithfield" />
<trip type="noVar" depart="15" id="Forbes-RHS-Ross.563" from="Forbes-RHS-Ross" to="Grant-Forbes-Fourth" />
<trip type="noVar" depart="15" id="Ross-Fourth-Forbes.458" from="Ross-Fourth-Forbes" to="Forbes-WilliamPenn-Smithfield" />
<trip type="noVar" depart="16" id="Sixth-Smithfield-WilliamPenn.124" from="Sixth-Smithfield-WilliamPenn" to="Grant-Forbes-Fourth" />
<trip type="noVar" depart="16" id="Ross-Seventh-Sixth.265" from="Ross-Seventh-Sixth" to="Fifth-Ross-RHS" />
<trip type="noVar" depart="16" id="Sixth-RHS-Ross.540" from="Sixth-RHS-Ross" to="Grant-Forbes-Fourth" />
<trip type="noVar" depart="16" id="Forbes-RHS-Ross.318" from="Forbes-RHS-Ross" to="Grant-Forbes-Fourth" />
<trip type="noVar" depart="17" id="Ross-Fourth-Forbes.622" from="Ross-Fourth-Forbes" to="Fifth-Ross-RHS" />
<trip type="noVar" depart="18" id="Grant-Fourth-Forbes.67" from="Grant-Fourth-Forbes" to="Grant-Sixth-Seventh" />
<trip type="noVar" depart="18" id="Ross-Seventh-Sixth.405" from="Ross-Seventh-Sixth" to="Fifth-Ross-RHS" />
<trip type="noVar" depart="19" id="Oliver-Smithfield-WilliamPenn.316" from="Oliver-Smithfield-WilliamPenn" to="Sixth-Ross-RHS" />
<trip type="noVar" depart="21" id="Fifth-Smithfield-WilliamPenn.84" from="Fifth-Smithfield-WilliamPenn" to="Sixth-WilliamPenn-Smithfield" />
<trip type="noVar" depart="21" id="Grant-Fourth-Forbes.488" from="Grant-Fourth-Forbes" to="Grant-Sixth-Seventh" />
<trip type="noVar" depart="22" id="Sixth-RHS-Ross.335" from="Sixth-RHS-Ross" to="Grant-Sixth-Seventh" />
<trip type="noVar" depart="22" id="Fifth-RHS-Ross.33" from="Fifth-RHS-Ross" to="Grant-Forbes-Fourth" />
<trip type="noVar" depart="23" id="Grant-Fourth-Forbes.104" from="Grant-Fourth-Forbes" to="Grant-Sixth-Seventh" />
<trip type="noVar" depart="24" id="Grant-Seventh-Sixth.425" from="Grant-Seventh-Sixth" to="WilliamPenn-Forbes-Fourth" />
<trip type="noVar" depart="24" id="Sixth-Smithfield-WilliamPenn.99" from="Sixth-Smithfield-WilliamPenn" to="Sixth-Ross-RHS" />
<trip type="noVar" depart="25" id="WilliamPenn-Seventh-Sixth.143" from="WilliamPenn-Seventh-Sixth" to="Grant-Sixth-Seventh" />
<trip type="noVar" depart="27" id="Fifth-Smithfield-WilliamPenn.68" from="Fifth-Smithfield-WilliamPenn" to="Grant-Sixth-Seventh" />
<trip type="noVar" depart="27" id="Grant-Fourth-Forbes.203" from="Grant-Fourth-Forbes" to="Fifth-WilliamPenn-Smithfield" />
<trip type="noVar" depart="28" id="Grant-Seventh-Sixth.44" from="Grant-Seventh-Sixth" to="Grant-Forbes-Fourth" />
<trip type="noVar" depart="28" id="Forbes-Smithfield-WilliamPenn.37" from="Forbes-Smithfield-WilliamPenn" to="WilliamPenn-Forbes-Fourth" />
<trip type="noVar" depart="28" id="Ross-Seventh-Sixth.497" from="Ross-Seventh-Sixth" to="Sixth-WilliamPenn-Smithfield" />
<trip type="noVar" depart="29" id="Grant-Fifth-Oliver.16" from="Grant-Fifth-Oliver" to="Grant-Sixth-Seventh" />
<trip type="noVar" depart="30" id="Grant-Fourth-Forbes.455" from="Grant-Fourth-Forbes" to="Grant-Sixth-Seventh" />
<trip type="noVar" depart="30" id="Sixth-RHS-Ross.143" from="Sixth-RHS-Ross" to="Ross-Sixth-Seventh" />
<trip type="noVar" depart="31" id="WilliamPenn-Seventh-Sixth.253" from="WilliamPenn-Seventh-Sixth" to="WilliamPenn-Forbes-Fourth" />
<trip type="noVar" depart="31" id="Sixth-Smithfield-WilliamPenn.141" from="Sixth-Smithfield-WilliamPenn" to="Sixth-Ross-RHS" />
<trip type="noVar" depart="31" id="Grant-Fourth-Forbes.39" from="Grant-Fourth-Forbes" to="Forbes-Ross-RHS" />
<trip type="noVar" depart="31" id="Forbes-RHS-Ross.269" from="Forbes-RHS-Ross" to="WilliamPenn-Forbes-Fourth" />
<trip type="noVar" depart="31" id="Ross-Fourth-Forbes.282" from="Ross-Fourth-Forbes" to="Grant-Forbes-Fourth" />
<trip type="noVar" depart="32" id="Sixth-RHS-Ross.359" from="Sixth-RHS-Ross" to="Ross-Sixth-Seventh" />
<trip type="noVar" depart="33" id="Ross-Seventh-Sixth.151" from="Ross-Seventh-Sixth" to="Ross-Forbes-Fourth" />
<trip type="noVar" depart="33" id="Sixth-RHS-Ross.391" from="Sixth-RHS-Ross" to="Fifth-WilliamPenn-Smithfield" />
<trip type="noVar" depart="33" id="Fifth-RHS-Ross.360" from="Fifth-RHS-Ross" to="Ross-Forbes-Fourth" />
<trip type="noVar" depart="34" id="Sixth-Smithfield-WilliamPenn.29" from="Sixth-Smithfield-WilliamPenn" to="Fifth-Ross-RHS" />
<trip type="noVar" depart="37" id="Grant-Fourth-Forbes.513" from="Grant-Fourth-Forbes" to="Grant-Sixth-Seventh" />
<trip type="noVar" depart="37" id="Grant-Fourth-Forbes.597" from="Grant-Fourth-Forbes" to="Grant-Sixth-Seventh" />
<trip type="noVar" depart="38" id="Oliver-Smithfield-WilliamPenn.17" from="Oliver-Smithfield-WilliamPenn" to="Sixth-Ross-RHS" />
<trip type="noVar" depart="38" id="Sixth-RHS-Ross.179" from="Sixth-RHS-Ross" to="Ross-Forbes-Fourth" />
<trip type="noVar" depart="39" id="Grant-Seventh-Sixth.81" from="Grant-Seventh-Sixth" to="Sixth-Ross-RHS" />
<trip type="noVar" depart="39" id="Ross-Seventh-Sixth.728" from="Ross-Seventh-Sixth" to="Fifth-Ross-RHS" />
<trip type="noVar" depart="41" id="Ross-Seventh-Sixth.532" from="Ross-Seventh-Sixth" to="Sixth-Ross-RHS" />
<trip type="noVar" depart="42" id="Sixth-Smithfield-WilliamPenn.167" from="Sixth-Smithfield-WilliamPenn" to="Sixth-Ross-RHS" />
<trip type="noVar" depart="42" id="Ross-Seventh-Sixth.89" from="Ross-Seventh-Sixth" to="Fifth-Ross-RHS" />
<trip type="noVar" depart="42" id="Forbes-RHS-Ross.539" from="Forbes-RHS-Ross" to="Grant-Forbes-Fourth" />
<trip type="noVar" depart="42" id="Ross-Fourth-Forbes.193" from="Ross-Fourth-Forbes" to="Ross-Sixth-Seventh" />
<trip type="noVar" depart="43" id="Oliver-Smithfield-WilliamPenn.363" from="Oliver-Smithfield-WilliamPenn" to="Fifth-WilliamPenn-Smithfield" />
<trip type="noVar" depart="43" id="Grant-Fourth-Forbes.482" from="Grant-Fourth-Forbes" to="Grant-Sixth-Seventh" />
<trip type="noVar" depart="43" id="Sixth-RHS-Ross.76" from="Sixth-RHS-Ross" to="Fifth-WilliamPenn-Smithfield" />
<trip type="noVar" depart="44" id="Fifth-RHS-Ross.83" from="Fifth-RHS-Ross" to="Grant-Sixth-Seventh" />
<trip type="noVar" depart="46" id="WilliamPenn-Seventh-Sixth.151" from="WilliamPenn-Seventh-Sixth" to="Sixth-WilliamPenn-Smithfield" />
<trip type="noVar" depart="46" id="Ross-Seventh-Sixth.309" from="Ross-Seventh-Sixth" to="Sixth-WilliamPenn-Smithfield" />
<trip type="noVar" depart="47" id="Grant-Seventh-Sixth.525" from="Grant-Seventh-Sixth" to="Grant-Forbes-Fourth" />
<trip type="noVar" depart="47" id="Forbes-RHS-Ross.418" from="Forbes-RHS-Ross" to="Ross-Forbes-Fourth" />
<trip type="noVar" depart="48" id="WilliamPenn-Seventh-Sixth.184" from="WilliamPenn-Seventh-Sixth" to="Grant-Sixth-Seventh" />
<trip type="noVar" depart="48" id="Fifth-RHS-Ross.186" from="Fifth-RHS-Ross" to="Forbes-Ross-RHS" />
<trip type="noVar" depart="49" id="Fifth-RHS-Ross.155" from="Fifth-RHS-Ross" to="Forbes-Ross-RHS" />
<trip type="noVar" depart="50" id="Fifth-RHS-Ross.154" from="Fifth-RHS-Ross" to="Grant-Forbes-Fourth" />
<trip type="noVar" depart="51" id="Ross-Seventh-Sixth.233" from="Ross-Seventh-Sixth" to="Grant-Sixth-Seventh" />
<trip type="noVar" depart="51" id="Sixth-RHS-Ross.562" from="Sixth-RHS-Ross" to="Grant-Sixth-Seventh" />
<trip type="noVar" depart="51" id="Forbes-RHS-Ross.67" from="Forbes-RHS-Ross" to="Forbes-WilliamPenn-Smithfield" />
<trip type="noVar" depart="51" id="Ross-Fourth-Forbes.491" from="Ross-Fourth-Forbes" to="Ross-Sixth-Seventh" />
<trip type="noVar" depart="52" id="Grant-Fourth-Forbes.638" from="Grant-Fourth-Forbes" to="Forbes-WilliamPenn-Smithfield" />
<trip type="noVar" depart="53" id="Ross-Fourth-Forbes.280" from="Ross-Fourth-Forbes" to="Forbes-WilliamPenn-Smithfield" />
<trip type="noVar" depart="54" id="Grant-Seventh-Sixth.629" from="Grant-Seventh-Sixth" to="Sixth-Ross-RHS" />
<trip type="noVar" depart="54" id="Grant-Fourth-Forbes.569" from="Grant-Fourth-Forbes" to="Grant-Sixth-Seventh" />
<trip type="noVar" depart="54" id="Ross-Seventh-Sixth.574" from="Ross-Seventh-Sixth" to="Fifth-WilliamPenn-Smithfield" />
<trip type="noVar" depart="54" id="Ross-Fourth-Forbes.548" from="Ross-Fourth-Forbes" to="Ross-Sixth-Seventh" />
<trip type="noVar" depart="55" id="Oliver-Smithfield-WilliamPenn.147" from="Oliver-Smithfield-WilliamPenn" to="Grant-Sixth-Seventh" />
<trip type="noVar" depart="56" id="WilliamPenn-Seventh-Sixth.15" from="WilliamPenn-Seventh-Sixth" to="Fifth-WilliamPenn-Smithfield" />
<trip type="noVar" depart="56" id="Ross-Fourth-Forbes.170" from="Ross-Fourth-Forbes" to="Forbes-Ross-RHS" />
<trip type="noVar" depart="57" id="Grant-Fourth-Forbes.631" from="Grant-Fourth-Forbes" to="Grant-Sixth-Seventh" />
<trip type="noVar" depart="57" id="Ross-Fourth-Forbes.83" from="Ross-Fourth-Forbes" to="Sixth-Ross-RHS" />
<trip type="noVar" depart="58" id="Grant-Seventh-Sixth.160" from="Grant-Seventh-Sixth" to="Grant-Forbes-Fourth" />
<trip type="noVar" depart="59" id="Ross-Fourth-Forbes.414" from="Ross-Fourth-Forbes" to="WilliamPenn-Forbes-Fourth" />
<trip type="noVar" depart="60" id="Ross-Seventh-Sixth.239" from="Ross-Seventh-Sixth" to="Grant-Sixth-Seventh" />
<trip type="noVar" depart="62" id="WilliamPenn-Seventh-Sixth.82" from="WilliamPenn-Seventh-Sixth" to="Fifth-WilliamPenn-Smithfield" />
<trip type="noVar" depart="62" id="Ross-Seventh-Sixth.65" from="Ross-Seventh-Sixth" to="Fifth-Ross-RHS" />
<trip type="noVar" depart="62" id="Ross-Fourth-Forbes.294" from="Ross-Fourth-Forbes" to="Forbes-Ross-RHS" />
<trip type="noVar" depart="63" id="Grant-Fourth-Forbes.264" from="Grant-Fourth-Forbes" to="Forbes-WilliamPenn-Smithfield" />
<trip type="noVar" depart="63" id="Ross-Seventh-Sixth.71" from="Ross-Seventh-Sixth" to="Grant-Sixth-Seventh" />
<trip type="noVar" depart="63" id="Ross-Seventh-Sixth.585" from="Ross-Seventh-Sixth" to="WilliamPenn-Forbes-Fourth" />
<trip type="noVar" depart="64" id="WilliamPenn-Seventh-Sixth.221" from="WilliamPenn-Seventh-Sixth" to="Sixth-Ross-RHS" />
<trip type="noVar" depart="65" id="Sixth-Smithfield-WilliamPenn.157" from="Sixth-Smithfield-WilliamPenn" to="WilliamPenn-Forbes-Fourth" />
<trip type="noVar" depart="66" id="Sixth-Smithfield-WilliamPenn.50" from="Sixth-Smithfield-WilliamPenn" to="Ross-Sixth-Seventh" />
<trip type="noVar" depart="66" id="Grant-Fourth-Forbes.217" from="Grant-Fourth-Forbes" to="Sixth-Ross-RHS" />
<trip type="noVar" depart="66" id="Forbes-RHS-Ross.567" from="Forbes-RHS-Ross" to="Ross-Forbes-Fourth" />
<trip type="noVar" depart="67" id="Grant-Seventh-Sixth.655" from="Grant-Seventh-Sixth" to="Grant-Forbes-Fourth" />
<trip type="noVar" depart="67" id="Sixth-Smithfield-WilliamPenn.160" from="Sixth-Smithfield-WilliamPenn" to="Grant-Forbes-Fourth" />
<trip type="noVar" depart="67" id="Oliver-Smithfield-WilliamPenn.185" from="Oliver-Smithfield-WilliamPenn" to="Sixth-Ross-RHS" />
<trip type="noVar" depart="68" id="Forbes-RHS-Ross.38" from="Forbes-RHS-Ross" to="Forbes-WilliamPenn-Smithfield" />
<trip type="noVar" depart="69" id="Forbes-RHS-Ross.325" from="Forbes-RHS-Ross" to="Forbes-WilliamPenn-Smithfield" />
<trip type="noVar" depart="69" id="Ross-Fourth-Forbes.370" from="Ross-Fourth-Forbes" to="Ross-Sixth-Seventh" />
<trip type="noVar" depart="69" id="Ross-Fourth-Forbes.559" from="Ross-Fourth-Forbes" to="Forbes-Ross-RHS" />
<trip type="noVar" depart="70" id="Grant-Seventh-Sixth.676" from="Grant-Seventh-Sixth" to="Ross-Forbes-Fourth" />
<trip type="noVar" depart="71" id="Ross-Seventh-Sixth.61" from="Ross-Seventh-Sixth" to="Sixth-Ross-RHS" />
<trip type="noVar" depart="72" id="Grant-Seventh-Sixth.161" from="Grant-Seventh-Sixth" to="Grant-Forbes-Fourth" />
<trip type="noVar" depart="72" id="WilliamPenn-Seventh-Sixth.163" from="WilliamPenn-Seventh-Sixth" to="Oliver-WilliamPenn-Smithfield" />
<trip type="noVar" depart="72" id="Ross-Seventh-Sixth.55" from="Ross-Seventh-Sixth" to="Sixth-Ross-RHS" />
<trip type="noVar" depart="73" id="Grant-Fourth-Forbes.678" from="Grant-Fourth-Forbes" to="Grant-Sixth-Seventh" />
<trip type="noVar" depart="73" id="Ross-Seventh-Sixth.581" from="Ross-Seventh-Sixth" to="Grant-Sixth-Seventh" />
<trip type="noVar" depart="75" id="Fifth-Smithfield-WilliamPenn.69" from="Fifth-Smithfield-WilliamPenn" to="Grant-Sixth-Seventh" />
<trip type="noVar" depart="75" id="Forbes-RHS-Ross.159" from="Forbes-RHS-Ross" to="WilliamPenn-Forbes-Fourth" />
<trip type="noVar" depart="76" id="Grant-Seventh-Sixth.742" from="Grant-Seventh-Sixth" to="Grant-Forbes-Fourth" />
<trip type="noVar" depart="76" id="Sixth-Smithfield-WilliamPenn.274" from="Sixth-Smithfield-WilliamPenn" to="Grant-Sixth-Seventh" />
<trip type="noVar" depart="76" id="Forbes-RHS-Ross.224" from="Forbes-RHS-Ross" to="Grant-Forbes-Fourth" />
<trip type="noVar" depart="78" id="Grant-Seventh-Sixth.696" from="Grant-Seventh-Sixth" to="Grant-Forbes-Fourth" />
<trip type="noVar" depart="78" id="Oliver-Smithfield-WilliamPenn.359" from="Oliver-Smithfield-WilliamPenn" to="Grant-Sixth-Seventh" />
<trip type="noVar" depart="79" id="Oliver-Smithfield-WilliamPenn.83" from="Oliver-Smithfield-WilliamPenn" to="Grant-Sixth-Seventh" />
<trip type="noVar" depart="79" id="Ross-Seventh-Sixth.501" from="Ross-Seventh-Sixth" to="Fifth-Ross-RHS" />
<trip type="noVar" depart="80" id="Ross-Seventh-Sixth.7" from="Ross-Seventh-Sixth" to="Grant-Sixth-Seventh" />
<trip type="noVar" depart="81" id="Grant-Seventh-Sixth.35" from="Grant-Seventh-Sixth" to="Sixth-Ross-RHS" />
<trip type="noVar" depart="82" id="Ross-Seventh-Sixth.274" from="Ross-Seventh-Sixth" to="Sixth-WilliamPenn-Smithfield" />
<trip type="noVar" depart="82" id="Ross-Fourth-Forbes.420" from="Ross-Fourth-Forbes" to="Forbes-Ross-RHS" />
<trip type="noVar" depart="83" id="Grant-Seventh-Sixth.334" from="Grant-Seventh-Sixth" to="Grant-Forbes-Fourth" />
<trip type="noVar" depart="83" id="Grant-Fourth-Forbes.176" from="Grant-Fourth-Forbes" to="WilliamPenn-Forbes-Fourth" />
<trip type="noVar" depart="83" id="Fifth-RHS-Ross.254" from="Fifth-RHS-Ross" to="Grant-Sixth-Seventh" />
<trip type="noVar" depart="84" id="Grant-Seventh-Sixth.653" from="Grant-Seventh-Sixth" to="Grant-Forbes-Fourth" />
<trip type="noVar" depart="84" id="Sixth-RHS-Ross.424" from="Sixth-RHS-Ross" to="Sixth-WilliamPenn-Smithfield" />
<trip type="noVar" depart="84" id="Forbes-RHS-Ross.135" from="Forbes-RHS-Ross" to="Grant-Forbes-Fourth" />
<trip type="noVar" depart="84" id="Ross-Fourth-Forbes.519" from="Ross-Fourth-Forbes" to="Ross-Sixth-Seventh" />
<trip type="noVar" depart="85" id="Grant-Fourth-Forbes.10" from="Grant-Fourth-Forbes" to="Grant-Sixth-Seventh" />
<trip type="noVar" depart="85" id="Ross-Seventh-Sixth.261" from="Ross-Seventh-Sixth" to="Fifth-WilliamPenn-Smithfield" />
<trip type="noVar" depart="86" id="Oliver-Smithfield-WilliamPenn.195" from="Oliver-Smithfield-WilliamPenn" to="WilliamPenn-Forbes-Fourth" />
<trip type="noVar" depart="86" id="Grant-Fourth-Forbes.451" from="Grant-Fourth-Forbes" to="Grant-Sixth-Seventh" />
<trip type="noVar" depart="86" id="Forbes-RHS-Ross.423" from="Forbes-RHS-Ross" to="Grant-Forbes-Fourth" />
<trip type="noVar" depart="89" id="Ross-Seventh-Sixth.527" from="Ross-Seventh-Sixth" to="Sixth-Ross-RHS" />
<trip type="noVar" depart="89" id="Fifth-RHS-Ross.75" from="Fifth-RHS-Ross" to="Fifth-WilliamPenn-Smithfield" />
<trip type="noVar" depart="89" id="Ross-Fourth-Forbes.411" from="Ross-Fourth-Forbes" to="Forbes-Ross-RHS" />
<trip type="noVar" depart="90" id="Grant-Seventh-Sixth.613" from="Grant-Seventh-Sixth" to="Grant-Forbes-Fourth" />
<trip type="noVar" depart="90" id="Grant-Fourth-Forbes.311" from="Grant-Fourth-Forbes" to="Grant-Sixth-Seventh" />
<trip type="noVar" depart="91" id="Fifth-Smithfield-WilliamPenn.48" from="Fifth-Smithfield-WilliamPenn" to="Fifth-Ross-RHS" />
<trip type="noVar" depart="91" id="Ross-Seventh-Sixth.361" from="Ross-Seventh-Sixth" to="Sixth-Ross-RHS" />
<trip type="noVar" depart="92" id="WilliamPenn-Seventh-Sixth.270" from="WilliamPenn-Seventh-Sixth" to="Sixth-WilliamPenn-Smithfield" />
<trip type="noVar" depart="92" id="Sixth-Smithfield-WilliamPenn.438" from="Sixth-Smithfield-WilliamPenn" to="Sixth-Ross-RHS" />
<trip type="noVar" depart="93" id="Ross-Seventh-Sixth.678" from="Ross-Seventh-Sixth" to="Sixth-Ross-RHS" />
<trip type="noVar" depart="93" id="Fifth-RHS-Ross.399" from="Fifth-RHS-Ross" to="Grant-Sixth-Seventh" />
<trip type="noVar" depart="94" id="Grant-Seventh-Sixth.493" from="Grant-Seventh-Sixth" to="Grant-Forbes-Fourth" />
<trip type="noVar" depart="95" id="Grant-Fourth-Forbes.583" from="Grant-Fourth-Forbes" to="Grant-Sixth-Seventh" />
<trip type="noVar" depart="95" id="Forbes-RHS-Ross.223" from="Forbes-RHS-Ross" to="Grant-Forbes-Fourth" />
<trip type="noVar" depart="95" id="Ross-Fourth-Forbes.556" from="Ross-Fourth-Forbes" to="Ross-Sixth-Seventh" />
<trip type="noVar" depart="96" id="Ross-Seventh-Sixth.652" from="Ross-Seventh-Sixth" to="Ross-Forbes-Fourth" />
<trip type="noVar" depart="98" id="Grant-Seventh-Sixth.748" from="Grant-Seventh-Sixth" to="Grant-Forbes-Fourth" />
<trip type="noVar" depart="99" id="Fifth-Smithfield-WilliamPenn.63" from="Fifth-Smithfield-WilliamPenn" to="Sixth-WilliamPenn-Smithfield" />
<trip type="noVar" depart="99" id="Ross-Fourth-Forbes.143" from="Ross-Fourth-Forbes" to="Forbes-Ross-RHS" />
<trip type="noVar" depart="99" id="Ross-Fourth-Forbes.246" from="Ross-Fourth-Forbes" to="Forbes-Ross-RHS" />
<trip type="noVar" depart="100" id="Grant-Fourth-Forbes.619" from="Grant-Fourth-Forbes" to="Grant-Sixth-Seventh" />
<trip type="noVar" depart="101" id="Grant-Fifth-Oliver.2" from="Grant-Fifth-Oliver" to="Grant-Sixth-Seventh" />
<trip type="noVar" depart="101" id="Ross-Seventh-Sixth.503" from="Ross-Seventh-Sixth" to="Ross-Forbes-Fourth" />
<trip type="noVar" depart="101" id="Sixth-RHS-Ross.298" from="Sixth-RHS-Ross" to="Grant-Sixth-Seventh" />
<trip type="noVar" depart="101" id="Forbes-RHS-Ross.138" from="Forbes-RHS-Ross" to="Ross-Forbes-Fourth" />
<trip type="noVar" depart="103" id="WilliamPenn-Seventh-Sixth.269" from="WilliamPenn-Seventh-Sixth" to="Oliver-WilliamPenn-Smithfield" />
<trip type="noVar" depart="103" id="Ross-Fourth-Forbes.493" from="Ross-Fourth-Forbes" to="Ross-Sixth-Seventh" />
<trip type="noVar" depart="104" id="Sixth-Smithfield-WilliamPenn.18" from="Sixth-Smithfield-WilliamPenn" to="Forbes-WilliamPenn-Smithfield" />
<trip type="noVar" depart="104" id="Oliver-Smithfield-WilliamPenn.329" from="Oliver-Smithfield-WilliamPenn" to="Grant-Sixth-Seventh" />
<trip type="noVar" depart="104" id="Ross-Seventh-Sixth.480" from="Ross-Seventh-Sixth" to="Sixth-WilliamPenn-Smithfield" />
<trip type="noVar" depart="105" id="Grant-Seventh-Sixth.51" from="Grant-Seventh-Sixth" to="Grant-Forbes-Fourth" />
<trip type="noVar" depart="106" id="WilliamPenn-Seventh-Sixth.204" from="WilliamPenn-Seventh-Sixth" to="Grant-Sixth-Seventh" />
<trip type="noVar" depart="106" id="Fifth-RHS-Ross.152" from="Fifth-RHS-Ross" to="WilliamPenn-Forbes-Fourth" />
<trip type="noVar" depart="108" id="Sixth-Smithfield-WilliamPenn.56" from="Sixth-Smithfield-WilliamPenn" to="Grant-Sixth-Seventh" />
<trip type="noVar" depart="109" id="Forbes-RHS-Ross.621" from="Forbes-RHS-Ross" to="Ross-Forbes-Fourth" />
<trip type="noVar" depart="110" id="WilliamPenn-Seventh-Sixth.254" from="WilliamPenn-Seventh-Sixth" to="Ross-Sixth-Seventh" />
<trip type="noVar" depart="110" id="Sixth-Smithfield-WilliamPenn.15" from="Sixth-Smithfield-WilliamPenn" to="Ross-Sixth-Seventh" />
<trip type="noVar" depart="110" id="Sixth-Smithfield-WilliamPenn.77" from="Sixth-Smithfield-WilliamPenn" to="Grant-Sixth-Seventh" />
<trip type="noVar" depart="110" id="Ross-Fourth-Forbes.670" from="Ross-Fourth-Forbes" to="Forbes-Ross-RHS" />
<trip type="noVar" depart="112" id="WilliamPenn-Seventh-Sixth.200" from="WilliamPenn-Seventh-Sixth" to="Fifth-WilliamPenn-Smithfield" />
<trip type="noVar" depart="112" id="Sixth-RHS-Ross.73" from="Sixth-RHS-Ross" to="Grant-Sixth-Seventh" />
<trip type="noVar" depart="113" id="Oliver-Smithfield-WilliamPenn.255" from="Oliver-Smithfield-WilliamPenn" to="Grant-Sixth-Seventh" />
<trip type="noVar" depart="113" id="Forbes-Smithfield-WilliamPenn.49" from="Forbes-Smithfield-WilliamPenn" to="WilliamPenn-Forbes-Fourth" />
<trip type="noVar" depart="115" id="Grant-Fourth-Forbes.215" from="Grant-Fourth-Forbes" to="Forbes-WilliamPenn-Smithfield" />
<trip type="noVar" depart="116" id="Oliver-Smithfield-WilliamPenn.244" from="Oliver-Smithfield-WilliamPenn" to="Ross-Forbes-Fourth" />
<trip type="noVar" depart="116" id="Oliver-Smithfield-WilliamPenn.372" from="Oliver-Smithfield-WilliamPenn" to="Fifth-WilliamPenn-Smithfield" />
<trip type="noVar" depart="116" id="Grant-Fourth-Forbes.463" from="Grant-Fourth-Forbes" to="Grant-Sixth-Seventh" />
<trip type="noVar" depart="116" id="Sixth-RHS-Ross.147" from="Sixth-RHS-Ross" to="Grant-Sixth-Seventh" />
<trip type="noVar" depart="116" id="Ross-Fourth-Forbes.323" from="Ross-Fourth-Forbes" to="Ross-Sixth-Seventh" />
<trip type="noVar" depart="117" id="WilliamPenn-Seventh-Sixth.284" from="WilliamPenn-Seventh-Sixth" to="WilliamPenn-Forbes-Fourth" />
<trip type="noVar" depart="117" id="Ross-Seventh-Sixth.474" from="Ross-Seventh-Sixth" to="Forbes-Ross-RHS" />
<trip type="noVar" depart="118" id="WilliamPenn-Seventh-Sixth.190" from="WilliamPenn-Seventh-Sixth" to="Sixth-WilliamPenn-Smithfield" />
<trip type="noVar" depart="118" id="Fifth-Smithfield-WilliamPenn.13" from="Fifth-Smithfield-WilliamPenn" to="Sixth-Ross-RHS" />
<trip type="noVar" depart="118" id="Sixth-RHS-Ross.289" from="Sixth-RHS-Ross" to="Grant-Sixth-Seventh" />
<trip type="noVar" depart="119" id="Ross-Fourth-Forbes.251" from="Ross-Fourth-Forbes" to="Forbes-Ross-RHS" />
<trip type="noVar" depart="120" id="Grant-Seventh-Sixth.482" from="Grant-Seventh-Sixth" to="Grant-Forbes-Fourth" />
<trip type="noVar" depart="120" id="Ross-Fourth-Forbes.300" from="Ross-Fourth-Forbes" to="Forbes-Ross-RHS" />
<trip type="noVar" depart="120" id="Ross-Fourth-Forbes.336" from="Ross-Fourth-Forbes" to="Ross-Sixth-Seventh" />
<trip type="noVar" depart="121" id="Grant-Seventh-Sixth.643" from="Grant-Seventh-Sixth" to="Forbes-WilliamPenn-Smithfield" />
<trip type="noVar" depart="122" id="Grant-Fourth-Forbes.115" from="Grant-Fourth-Forbes" to="Grant-Sixth-Seventh" />
<trip type="noVar" depart="122" id="Ross-Seventh-Sixth.80" from="Ross-Seventh-Sixth" to="Ross-Forbes-Fourth" />
<trip type="noVar" depart="124" id="Fifth-RHS-Ross.409" from="Fifth-RHS-Ross" to="Grant-Forbes-Fourth" />
<trip type="noVar" depart="124" id="Forbes-RHS-Ross.455" from="Forbes-RHS-Ross" to="WilliamPenn-Forbes-Fourth" />
<trip type="noVar" depart="125" id="Grant-Fourth-Forbes.323" from="Grant-Fourth-Forbes" to="Fifth-WilliamPenn-Smithfield" />
<trip type="noVar" depart="125" id="Ross-Seventh-Sixth.332" from="Ross-Seventh-Sixth" to="Fifth-Ross-RHS" />
<trip type="noVar" depart="126" id="Sixth-Smithfield-WilliamPenn.483" from="Sixth-Smithfield-WilliamPenn" to="Ross-Sixth-Seventh" />
<trip type="noVar" depart="126" id="Ross-Seventh-Sixth.698" from="Ross-Seventh-Sixth" to="Grant-Forbes-Fourth" />
<trip type="noVar" depart="126" id="Sixth-RHS-Ross.360" from="Sixth-RHS-Ross" to="Grant-Sixth-Seventh" />
<trip type="noVar" depart="126" id="Ross-Fourth-Forbes.313" from="Ross-Fourth-Forbes" to="Forbes-Ross-RHS" />
<trip type="noVar" depart="127" id="Grant-Seventh-Sixth.348" from="Grant-Seventh-Sixth" to="Grant-Forbes-Fourth" />
<trip type="noVar" depart="127" id="WilliamPenn-Seventh-Sixth.239" from="WilliamPenn-Seventh-Sixth" to="Grant-Sixth-Seventh" />
<trip type="noVar" depart="127" id="Oliver-Smithfield-WilliamPenn.215" from="Oliver-Smithfield-WilliamPenn" to="Sixth-WilliamPenn-Smithfield" />
<trip type="noVar" depart="127" id="Grant-Fourth-Forbes.414" from="Grant-Fourth-Forbes" to="Grant-Sixth-Seventh" />
<trip type="noVar" depart="127" id="Fifth-RHS-Ross.310" from="Fifth-RHS-Ross" to="Fifth-WilliamPenn-Smithfield" />
<trip type="noVar" depart="128" id="Grant-Seventh-Sixth.565" from="Grant-Seventh-Sixth" to="Grant-Forbes-Fourth" />
<trip type="noVar" depart="128" id="Ross-Fourth-Forbes.29" from="Ross-Fourth-Forbes" to="Ross-Sixth-Seventh" />
<trip type="noVar" depart="129" id="Grant-Seventh-Sixth.623" from="Grant-Seventh-Sixth" to="Grant-Forbes-Fourth" />
<trip type="noVar" depart="129" id="Sixth-Smithfield-WilliamPenn.80" from="Sixth-Smithfield-WilliamPenn" to="Ross-Sixth-Seventh" />
<trip type="noVar" depart="129" id="Grant-Fourth-Forbes.530" from="Grant-Fourth-Forbes" to="Grant-Sixth-Seventh" />
<trip type="noVar" depart="129" id="Ross-Seventh-Sixth.666" from="Ross-Seventh-Sixth" to="Sixth-Ross-RHS" />
<trip type="noVar" depart="130" id="Ross-Seventh-Sixth.217" from="Ross-Seventh-Sixth" to="Fifth-Ross-RHS" />
<trip type="noVar" depart="131" id="Grant-Seventh-Sixth.406" from="Grant-Seventh-Sixth" to="Forbes-WilliamPenn-Smithfield" />
<trip type="noVar" depart="131" id="Oliver-Smithfield-WilliamPenn.362" from="Oliver-Smithfield-WilliamPenn" to="Grant-Sixth-Seventh" />
<trip type="noVar" depart="131" id="Forbes-RHS-Ross.598" from="Forbes-RHS-Ross" to="Grant-Forbes-Fourth" />
<trip type="noVar" depart="134" id="Oliver-Smithfield-WilliamPenn.396" from="Oliver-Smithfield-WilliamPenn" to="Ross-Sixth-Seventh" />
<trip type="noVar" depart="134" id="Forbes-RHS-Ross.208" from="Forbes-RHS-Ross" to="Grant-Forbes-Fourth" />
<trip type="noVar" depart="134" id="Forbes-RHS-Ross.222" from="Forbes-RHS-Ross" to="Grant-Forbes-Fourth" />
<trip type="noVar" depart="135" id="Sixth-RHS-Ross.385" from="Sixth-RHS-Ross" to="Sixth-WilliamPenn-Smithfield" />
<trip type="noVar" depart="136" id="Ross-Seventh-Sixth.95" from="Ross-Seventh-Sixth" to="Grant-Forbes-Fourth" />
<trip type="noVar" depart="136" id="Forbes-RHS-Ross.424" from="Forbes-RHS-Ross" to="Grant-Forbes-Fourth" />
<trip type="noVar" depart="138" id="Forbes-RHS-Ross.489" from="Forbes-RHS-Ross" to="Grant-Forbes-Fourth" />
<trip type="noVar" depart="139" id="Grant-Fourth-Forbes.266" from="Grant-Fourth-Forbes" to="Grant-Sixth-Seventh" />
<trip type="noVar" depart="139" id="Sixth-RHS-Ross.132" from="Sixth-RHS-Ross" to="Ross-Sixth-Seventh" />
<trip type="noVar" depart="139" id="Fifth-RHS-Ross.329" from="Fifth-RHS-Ross" to="Fifth-WilliamPenn-Smithfield" />
<trip type="noVar" depart="140" id="WilliamPenn-Seventh-Sixth.310" from="WilliamPenn-Seventh-Sixth" to="Forbes-WilliamPenn-Smithfield" />
<trip type="noVar" depart="140" id="Oliver-Smithfield-WilliamPenn.337" from="Oliver-Smithfield-WilliamPenn" to="Grant-Sixth-Seventh" />
<trip type="noVar" depart="140" id="Sixth-RHS-Ross.428" from="Sixth-RHS-Ross" to="Sixth-WilliamPenn-Smithfield" />
<trip type="noVar" depart="142" id="Ross-Seventh-Sixth.240" from="Ross-Seventh-Sixth" to="Grant-Sixth-Seventh" />
<trip type="noVar" depart="142" id="Ross-Seventh-Sixth.717" from="Ross-Seventh-Sixth" to="Sixth-Ross-RHS" />