<?xml version="1.0" encoding="UTF-8"?>
<routes xmlns:xsi="http://www.w3.org/2001/XMLSchema-instance" xsi:noNamespaceSchemaLocation="http://sumo.dlr.de/xsd/routes_file.xsd">

<vType id="noVar" speedFactor="1.0" speedDev="0.0"/>
<route id="route_Sixth-Smithfield-WilliamPenn.243" edges="Sixth-Smithfield-WilliamPenn WilliamPenn-Sixth-Oliver WilliamPenn-Oliver-Fifth WilliamPenn-Fifth-Forbes Forbes-WilliamPenn-Smithfield" />
<vehicle type="noVar" depart="0" id="Sixth-Smithfield-WilliamPenn.243" route="route_Sixth-Smithfield-WilliamPenn.243" />
<route id="route_Grant-Seventh-Sixth.241" edges="Grant-Seventh-Sixth Sixth-Grant-WilliamPenn WilliamPenn-Sixth-Oliver WilliamPenn-Oliver-Fifth WilliamPenn-Fifth-Forbes WilliamPenn-Forbes-Fourth" />
<vehicle type="noVar" depart="1" id="Grant-Seventh-Sixth.241" route="route_Grant-Seventh-Sixth.241" />
<route id="route_Forbes-Ross-Grant.154" edges="Forbes-Ross-Grant Grant-Forbes-Fourth" />
<vehicle type="noVar" depart="2" id="Forbes-Ross-Grant.154" route="route_Forbes-Ross-Grant.154" />
<route id="route_Grant-Seventh-Sixth.156" edges="Grant-Seventh-Sixth Sixth-Grant-WilliamPenn WilliamPenn-Sixth-Oliver WilliamPenn-Oliver-Fifth Fifth-WilliamPenn-Smithfield" />
<vehicle type="noVar" depart="4" id="Grant-Seventh-Sixth.156" route="route_Grant-Seventh-Sixth.156" />
<route id="route_Sixth-Smithfield-WilliamPenn.232" edges="Sixth-Smithfield-WilliamPenn Sixth-WilliamPenn-Grant Sixth-Grant-Ross -54314945#1 Ross-Sixth-Fifth Ross-Fifth-Forbes Forbes-Ross-Grant Grant-Forbes-Fourth" />
<vehicle type="noVar" depart="4" id="Sixth-Smithfield-WilliamPenn.232" route="route_Sixth-Smithfield-WilliamPenn.232" />
<route id="route_Fifth-Ross-Grant.381" edges="Fifth-Ross-Grant Fifth-Ross-Grant-2 Fifth-Grant-WilliamPenn Fifth-WilliamPenn-Smithfield" />
<vehicle type="noVar" depart="4" id="Fifth-Ross-Grant.381" route="route_Fifth-Ross-Grant.381" />
<route id="route_Grant-Fourth-Forbes.374" edges="Grant-Fourth-Forbes Grant-Fourth-Forbes-2 Forbes-Grant-Ross" />
<vehicle type="noVar" depart="5" id="Grant-Fourth-Forbes.374" route="route_Grant-Fourth-Forbes.374" />
<route id="route_Grant-Seventh-Sixth.358" edges="Grant-Seventh-Sixth Sixth-Grant-WilliamPenn Sixth-WilliamPenn-Smithfield" />
<vehicle type="noVar" depart="7" id="Grant-Seventh-Sixth.358" route="route_Grant-Seventh-Sixth.358" />
<route id="route_Fifth-Ross-Grant.275" edges="Fifth-Ross-Grant Fifth-Ross-Grant-2 Grant-Fifth-Forbes Grant-Forbes-Fourth" />
<vehicle type="noVar" depart="7" id="Fifth-Ross-Grant.275" route="route_Fifth-Ross-Grant.275" />
<route id="route_Grant-Fourth-Forbes.3" edges="Grant-Fourth-Forbes Grant-Fourth-Forbes-2 Grant-Forbes-Fifth Grant-Fifth-Oliver Grant-Oliver-Sixth Sixth-Grant-Ross" />
<vehicle type="noVar" depart="8" id="Grant-Fourth-Forbes.3" route="route_Grant-Fourth-Forbes.3" />
<route id="route_Oliver-Smithfield-WilliamPenn.114" edges="Oliver-Smithfield-WilliamPenn WilliamPenn-Oliver-Fifth WilliamPenn-Fifth-Forbes WilliamPenn-Forbes-Fourth" />
<vehicle type="noVar" depart="8" id="Oliver-Smithfield-WilliamPenn.114" route="route_Oliver-Smithfield-WilliamPenn.114" />
<route id="route_WilliamPenn-Seventh-Sixth.205" edges="WilliamPenn-Seventh-Sixth WilliamPenn-Sixth-Oliver WilliamPenn-Oliver-Fifth WilliamPenn-Fifth-Forbes WilliamPenn-Forbes-Fourth" />
<vehicle type="noVar" depart="9" id="WilliamPenn-Seventh-Sixth.205" route="route_WilliamPenn-Seventh-Sixth.205" />
<route id="route_Sixth-Smithfield-WilliamPenn.212" edges="Sixth-Smithfield-WilliamPenn Sixth-WilliamPenn-Grant Grant-Sixth-Seventh" />
<vehicle type="noVar" depart="9" id="Sixth-Smithfield-WilliamPenn.212" route="route_Sixth-Smithfield-WilliamPenn.212" />
<route id="route_Grant-Seventh-Sixth.207" edges="Grant-Seventh-Sixth Sixth-Grant-Ross -54314945#1 Ross-Sixth-Fifth Ross-Fifth-Forbes Forbes-Ross-Grant Forbes-Grant-Ross" />
<vehicle type="noVar" depart="10" id="Grant-Seventh-Sixth.207" route="route_Grant-Seventh-Sixth.207" />
<route id="route_Fifth-Ross-Grant.231" edges="Fifth-Ross-Grant Fifth-Ross-Grant-2 Fifth-Grant-WilliamPenn Fifth-WilliamPenn-Smithfield" />
<vehicle type="noVar" depart="10" id="Fifth-Ross-Grant.231" route="route_Fifth-Ross-Grant.231" />
<route id="route_Grant-Fourth-Forbes.307" edges="Grant-Fourth-Forbes Grant-Fourth-Forbes-2 Grant-Forbes-Fifth Grant-Fifth-Oliver Grant-Oliver-Sixth Grant-Sixth-Seventh" />
<vehicle type="noVar" depart="11" id="Grant-Fourth-Forbes.307" route="route_Grant-Fourth-Forbes.307" />
<route id="route_Forbes-Smithfield-WilliamPenn.23" edges="Forbes-Smithfield-WilliamPenn WilliamPenn-Forbes-Fourth" />
<vehicle type="noVar" depart="11" id="Forbes-Smithfield-WilliamPenn.23" route="route_Forbes-Smithfield-WilliamPenn.23" />
<route id="route_Grant-Seventh-Sixth.130" edges="Grant-Seventh-Sixth Grant-Sixth-Oliver Grant-Oliver-Fifth Grant-Fifth-Forbes Grant-Forbes-Fourth" />
<vehicle type="noVar" depart="12" id="Grant-Seventh-Sixth.130" route="route_Grant-Seventh-Sixth.130" />
<route id="route_Sixth-Smithfield-WilliamPenn.233" edges="Sixth-Smithfield-WilliamPenn Sixth-WilliamPenn-Grant Grant-Sixth-Seventh" />
<vehicle type="noVar" depart="12" id="Sixth-Smithfield-WilliamPenn.233" route="route_Sixth-Smithfield-WilliamPenn.233" />
<route id="route_Fifth-Ross-Grant.219" edges="Fifth-Ross-Grant Fifth-Ross-Grant-2 Fifth-Grant-WilliamPenn Fifth-WilliamPenn-Smithfield" />
<vehicle type="noVar" depart="13" id="Fifth-Ross-Grant.219" route="route_Fifth-Ross-Grant.219" />
<route id="route_Oliver-Smithfield-WilliamPenn.127" edges="Oliver-Smithfield-WilliamPenn WilliamPenn-Oliver-Fifth WilliamPenn-Fifth-Forbes WilliamPenn-Forbes-Fourth" />
<vehicle type="noVar" depart="13" id="Oliver-Smithfield-WilliamPenn.127" route="route_Oliver-Smithfield-WilliamPenn.127" />
<route id="route_Sixth-Smithfield-WilliamPenn.271" edges="Sixth-Smithfield-WilliamPenn Sixth-WilliamPenn-Grant Grant-Sixth-Seventh" />
<vehicle type="noVar" depart="15" id="Sixth-Smithfield-WilliamPenn.271" route="route_Sixth-Smithfield-WilliamPenn.271" />
<route id="route_Oliver-Smithfield-WilliamPenn.122" edges="Oliver-Smithfield-WilliamPenn WilliamPenn-Oliver-Fifth WilliamPenn-Fifth-Forbes WilliamPenn-Forbes-Fourth" />
<vehicle type="noVar" depart="16" id="Oliver-Smithfield-WilliamPenn.122" route="route_Oliver-Smithfield-WilliamPenn.122" />
<route id="route_Fifth-Ross-Grant.277" edges="Fifth-Ross-Grant Fifth-Ross-Grant-2 Grant-Fifth-Forbes Forbes-Grant-Ross" />
<vehicle type="noVar" depart="16" id="Fifth-Ross-Grant.277" route="route_Fifth-Ross-Grant.277" />
<route id="route_Forbes-Ross-Grant.109" edges="Forbes-Ross-Grant Forbes-Grant-WilliamPenn WilliamPenn-Forbes-Fourth" />
<vehicle type="noVar" depart="17" id="Forbes-Ross-Grant.109" route="route_Forbes-Ross-Grant.109" />
<route id="route_Grant-Fourth-Forbes.489" edges="Grant-Fourth-Forbes Grant-Fourth-Forbes-2 Forbes-Grant-Ross" />
<vehicle type="noVar" depart="17" id="Grant-Fourth-Forbes.489" route="route_Grant-Fourth-Forbes.489" />
<route id="route_Fifth-Ross-Grant.26" edges="Fifth-Ross-Grant Fifth-Ross-Grant-2 Fifth-Grant-WilliamPenn Fifth-WilliamPenn-Smithfield" />
<vehicle type="noVar" depart="20" id="Fifth-Ross-Grant.26" route="route_Fifth-Ross-Grant.26" />
<route id="route_Oliver-Smithfield-WilliamPenn.82" edges="Oliver-Smithfield-WilliamPenn Oliver-WilliamPenn-Grant Grant-Oliver-Sixth Sixth-Grant-Ross" />
<vehicle type="noVar" depart="25" id="Oliver-Smithfield-WilliamPenn.82" route="route_Oliver-Smithfield-WilliamPenn.82" />
<route id="route_Sixth-Ross-Grant.373" edges="Sixth-Ross-Grant Sixth-Grant-WilliamPenn Sixth-WilliamPenn-Smithfield" />
<vehicle type="noVar" depart="28" id="Sixth-Ross-Grant.373" route="route_Sixth-Ross-Grant.373" />
<route id="route_Fifth-Smithfield-WilliamPenn.3" edges="Fifth-Smithfield-WilliamPenn Fifth-WilliamPenn-Grant Fifth-Grant-Ross" />
<vehicle type="noVar" depart="28" id="Fifth-Smithfield-WilliamPenn.3" route="route_Fifth-Smithfield-WilliamPenn.3" />
<route id="route_WilliamPenn-Seventh-Sixth.48" edges="WilliamPenn-Seventh-Sixth Sixth-WilliamPenn-Grant Grant-Sixth-Seventh" />
<vehicle type="noVar" depart="29" id="WilliamPenn-Seventh-Sixth.48" route="route_WilliamPenn-Seventh-Sixth.48" />
<route id="route_Fifth-Ross-Grant.113" edges="Fifth-Ross-Grant Fifth-Ross-Grant-2 Fifth-Grant-WilliamPenn WilliamPenn-Fifth-Forbes WilliamPenn-Forbes-Fourth" />
<vehicle type="noVar" depart="29" id="Fifth-Ross-Grant.113" route="route_Fifth-Ross-Grant.113" />
<route id="route_Grant-Fourth-Forbes.116" edges="Grant-Fourth-Forbes Grant-Fourth-Forbes-2 Forbes-Grant-Ross Ross-Forbes-Fifth Ross-Fifth-Sixth 54314945#1 Sixth-Ross-Grant Sixth-Grant-WilliamPenn Sixth-WilliamPenn-Smithfield" />
<vehicle type="noVar" depart="29" id="Grant-Fourth-Forbes.116" route="route_Grant-Fourth-Forbes.116" />
<route id="route_Fifth-Ross-Grant.388" edges="Fifth-Ross-Grant Fifth-Ross-Grant-2 Fifth-Grant-WilliamPenn Fifth-WilliamPenn-Smithfield" />
<vehicle type="noVar" depart="32" id="Fifth-Ross-Grant.388" route="route_Fifth-Ross-Grant.388" />
<route id="route_Grant-Fourth-Forbes.257" edges="Grant-Fourth-Forbes Grant-Fourth-Forbes-2 Grant-Forbes-Fifth Grant-Fifth-Oliver Grant-Oliver-Sixth Sixth-Grant-Ross" />
<vehicle type="noVar" depart="32" id="Grant-Fourth-Forbes.257" route="route_Grant-Fourth-Forbes.257" />
<route id="route_Forbes-Smithfield-WilliamPenn.29" edges="Forbes-Smithfield-WilliamPenn WilliamPenn-Forbes-Fourth" />
<vehicle type="noVar" depart="33" id="Forbes-Smithfield-WilliamPenn.29" route="route_Forbes-Smithfield-WilliamPenn.29" />
<route id="route_Sixth-Ross-Grant.40" edges="Sixth-Ross-Grant Grant-Sixth-Seventh" />
<vehicle type="noVar" depart="34" id="Sixth-Ross-Grant.40" route="route_Sixth-Ross-Grant.40" />
<route id="route_Grant-Fourth-Forbes.440" edges="Grant-Fourth-Forbes Grant-Fourth-Forbes-2 Grant-Forbes-Fifth Grant-Fifth-Oliver Grant-Oliver-Sixth Grant-Sixth-Seventh" />
<vehicle type="noVar" depart="35" id="Grant-Fourth-Forbes.440" route="route_Grant-Fourth-Forbes.440" />
<route id="route_Fifth-Ross-Grant.362" edges="Fifth-Ross-Grant Fifth-Ross-Grant-2 Grant-Fifth-Oliver Grant-Oliver-Sixth Grant-Sixth-Seventh" />
<vehicle type="noVar" depart="35" id="Fifth-Ross-Grant.362" route="route_Fifth-Ross-Grant.362" />
<route id="route_Sixth-Ross-Grant.410" edges="Sixth-Ross-Grant Sixth-Grant-WilliamPenn Sixth-WilliamPenn-Smithfield" />
<vehicle type="noVar" depart="37" id="Sixth-Ross-Grant.410" route="route_Sixth-Ross-Grant.410" />
<route id="route_Grant-Fourth-Forbes.579" edges="Grant-Fourth-Forbes Grant-Fourth-Forbes-2 Forbes-Grant-WilliamPenn Forbes-WilliamPenn-Smithfield" />
<vehicle type="noVar" depart="38" id="Grant-Fourth-Forbes.579" route="route_Grant-Fourth-Forbes.579" />
<route id="route_Sixth-Ross-Grant.219" edges="Sixth-Ross-Grant Grant-Sixth-Seventh" />
<vehicle type="noVar" depart="40" id="Sixth-Ross-Grant.219" route="route_Sixth-Ross-Grant.219" />
<route id="route_Grant-Seventh-Sixth.9" edges="Grant-Seventh-Sixth Grant-Sixth-Oliver Grant-Oliver-Fifth Grant-Fifth-Forbes Grant-Forbes-Fourth" />
<vehicle type="noVar" depart="41" id="Grant-Seventh-Sixth.9" route="route_Grant-Seventh-Sixth.9" />
<route id="route_Forbes-Ross-Grant.47" edges="Forbes-Ross-Grant Forbes-Grant-WilliamPenn WilliamPenn-Forbes-Fourth" />
<vehicle type="noVar" depart="42" id="Forbes-Ross-Grant.47" route="route_Forbes-Ross-Grant.47" />
<route id="route_Grant-Fourth-Forbes.79" edges="Grant-Fourth-Forbes Grant-Fourth-Forbes-2 Grant-Forbes-Fifth Grant-Fifth-Oliver Grant-Oliver-Sixth Grant-Sixth-Seventh" />
<vehicle type="noVar" depart="45" id="Grant-Fourth-Forbes.79" route="route_Grant-Fourth-Forbes.79" />
<route id="route_Sixth-Ross-Grant.396" edges="Sixth-Ross-Grant Sixth-Grant-WilliamPenn WilliamPenn-Sixth-Oliver WilliamPenn-Oliver-Fifth WilliamPenn-Fifth-Forbes WilliamPenn-Forbes-Fourth" />
<vehicle type="noVar" depart="48" id="Sixth-Ross-Grant.396" route="route_Sixth-Ross-Grant.396" />
<route id="route_WilliamPenn-Seventh-Sixth.4" edges="WilliamPenn-Seventh-Sixth WilliamPenn-Sixth-Oliver WilliamPenn-Oliver-Fifth WilliamPenn-Fifth-Forbes WilliamPenn-Forbes-Fourth" />
<vehicle type="noVar" depart="49" id="WilliamPenn-Seventh-Sixth.4" route="route_WilliamPenn-Seventh-Sixth.4" />
<route id="route_Sixth-Smithfield-WilliamPenn.111" edges="Sixth-Smithfield-WilliamPenn WilliamPenn-Sixth-Oliver WilliamPenn-Oliver-Fifth Fifth-WilliamPenn-Smithfield" />
<vehicle type="noVar" depart="50" id="Sixth-Smithfield-WilliamPenn.111" route="route_Sixth-Smithfield-WilliamPenn.111" />
<route id="route_Fifth-Ross-Grant.117" edges="Fifth-Ross-Grant Fifth-Ross-Grant-2 Fifth-Grant-WilliamPenn WilliamPenn-Fifth-Forbes WilliamPenn-Forbes-Fourth" />
<vehicle type="noVar" depart="51" id="Fifth-Ross-Grant.117" route="route_Fifth-Ross-Grant.117" />
<route id="route_Fifth-Smithfield-WilliamPenn.22" edges="Fifth-Smithfield-WilliamPenn Fifth-WilliamPenn-Grant Fifth-Grant-Ross" />
<vehicle type="noVar" depart="51" id="Fifth-Smithfield-WilliamPenn.22" route="route_Fifth-Smithfield-WilliamPenn.22" />
<route id="route_WilliamPenn-Seventh-Sixth.134" edges="WilliamPenn-Seventh-Sixth WilliamPenn-Sixth-Oliver WilliamPenn-Oliver-Fifth WilliamPenn-Fifth-Forbes WilliamPenn-Forbes-Fourth" />
<vehicle type="noVar" depart="52" id="WilliamPenn-Seventh-Sixth.134" route="route_WilliamPenn-Seventh-Sixth.134" />
<route id="route_Grant-Fourth-Forbes.275" edges="Grant-Fourth-Forbes Grant-Fourth-Forbes-2 Grant-Forbes-Fifth Grant-Fifth-Oliver Grant-Oliver-Sixth Grant-Sixth-Seventh" />
<vehicle type="noVar" depart="53" id="Grant-Fourth-Forbes.275" route="route_Grant-Fourth-Forbes.275" />
<route id="route_Fifth-Ross-Grant.348" edges="Fifth-Ross-Grant Fifth-Ross-Grant-2 Fifth-Grant-WilliamPenn Fifth-WilliamPenn-Smithfield" />
<vehicle type="noVar" depart="54" id="Fifth-Ross-Grant.348" route="route_Fifth-Ross-Grant.348" />
<route id="route_Grant-Fourth-Forbes.398" edges="Grant-Fourth-Forbes Grant-Fourth-Forbes-2 Grant-Forbes-Fifth Fifth-Grant-WilliamPenn Fifth-WilliamPenn-Smithfield" />
<vehicle type="noVar" depart="56" id="Grant-Fourth-Forbes.398" route="route_Grant-Fourth-Forbes.398" />
<route id="route_Grant-Seventh-Sixth.251" edges="Grant-Seventh-Sixth Grant-Sixth-Oliver Grant-Oliver-Fifth Grant-Fifth-Forbes Grant-Forbes-Fourth" />
<vehicle type="noVar" depart="56" id="Grant-Seventh-Sixth.251" route="route_Grant-Seventh-Sixth.251" />
<route id="route_Sixth-Smithfield-WilliamPenn.21" edges="Sixth-Smithfield-WilliamPenn WilliamPenn-Sixth-Oliver WilliamPenn-Oliver-Fifth WilliamPenn-Fifth-Forbes WilliamPenn-Forbes-Fourth" />
<vehicle type="noVar" depart="56" id="Sixth-Smithfield-WilliamPenn.21" route="route_Sixth-Smithfield-WilliamPenn.21" />
<route id="route_Forbes-Ross-Grant.73" edges="Forbes-Ross-Grant Grant-Forbes-Fourth" />
<vehicle type="noVar" depart="57" id="Forbes-Ross-Grant.73" route="route_Forbes-Ross-Grant.73" />
<route id="route_Sixth-Ross-Grant.109" edges="Sixth-Ross-Grant Grant-Sixth-Seventh" />
<vehicle type="noVar" depart="63" id="Sixth-Ross-Grant.109" route="route_Sixth-Ross-Grant.109" />
<route id="route_Oliver-Smithfield-WilliamPenn.93" edges="Oliver-Smithfield-WilliamPenn WilliamPenn-Oliver-Fifth WilliamPenn-Fifth-Forbes WilliamPenn-Forbes-Fourth" />
<vehicle type="noVar" depart="64" id="Oliver-Smithfield-WilliamPenn.93" route="route_Oliver-Smithfield-WilliamPenn.93" />
<route id="route_Grant-Fourth-Forbes.163" edges="Grant-Fourth-Forbes Grant-Fourth-Forbes-2 Grant-Forbes-Fifth Grant-Fifth-Oliver Grant-Oliver-Sixth Sixth-Grant-Ross" />
<vehicle type="noVar" depart="64" id="Grant-Fourth-Forbes.163" route="route_Grant-Fourth-Forbes.163" />
<route id="route_Oliver-Smithfield-WilliamPenn.86" edges="Oliver-Smithfield-WilliamPenn Oliver-WilliamPenn-Grant Grant-Oliver-Fifth Grant-Fifth-Forbes Forbes-Grant-Ross" />
<vehicle type="noVar" depart="67" id="Oliver-Smithfield-WilliamPenn.86" route="route_Oliver-Smithfield-WilliamPenn.86" />
<route id="route_Fifth-Ross-Grant.8" edges="Fifth-Ross-Grant Fifth-Ross-Grant-2 Grant-Fifth-Oliver Grant-Oliver-Sixth Grant-Sixth-Seventh" />
<vehicle type="noVar" depart="67" id="Fifth-Ross-Grant.8" route="route_Fifth-Ross-Grant.8" />
<route id="route_Sixth-Smithfield-WilliamPenn.102" edges="Sixth-Smithfield-WilliamPenn Sixth-WilliamPenn-Grant Sixth-Grant-Ross" />
<vehicle type="noVar" depart="67" id="Sixth-Smithfield-WilliamPenn.102" route="route_Sixth-Smithfield-WilliamPenn.102" />
<route id="route_Grant-Fourth-Forbes.310" edges="Grant-Fourth-Forbes Grant-Fourth-Forbes-2 Grant-Forbes-Fifth Fifth-Grant-Ross" />
<vehicle type="noVar" depart="67" id="Grant-Fourth-Forbes.310" route="route_Grant-Fourth-Forbes.310" />
<route id="route_Fifth-Ross-Grant.129" edges="Fifth-Ross-Grant Fifth-Ross-Grant-2 Grant-Fifth-Forbes Grant-Forbes-Fourth" />
<vehicle type="noVar" depart="70" id="Fifth-Ross-Grant.129" route="route_Fifth-Ross-Grant.129" />
<route id="route_Grant-Fourth-Forbes.620" edges="Grant-Fourth-Forbes Grant-Fourth-Forbes-2 Grant-Forbes-Fifth Grant-Fifth-Oliver Grant-Oliver-Sixth Grant-Sixth-Seventh" />
<vehicle type="noVar" depart="70" id="Grant-Fourth-Forbes.620" route="route_Grant-Fourth-Forbes.620" />
<route id="route_Grant-Seventh-Sixth.263" edges="Grant-Seventh-Sixth Grant-Sixth-Oliver Grant-Oliver-Fifth Grant-Fifth-Forbes Grant-Forbes-Fourth" />
<vehicle type="noVar" depart="72" id="Grant-Seventh-Sixth.263" route="route_Grant-Seventh-Sixth.263" />
<route id="route_Fifth-Ross-Grant.65" edges="Fifth-Ross-Grant Fifth-Ross-Grant-2 Fifth-Grant-WilliamPenn Fifth-WilliamPenn-Smithfield" />
<vehicle type="noVar" depart="73" id="Fifth-Ross-Grant.65" route="route_Fifth-Ross-Grant.65" />
<route id="route_WilliamPenn-Seventh-Sixth.200" edges="WilliamPenn-Seventh-Sixth WilliamPenn-Sixth-Oliver WilliamPenn-Oliver-Fifth WilliamPenn-Fifth-Forbes Forbes-WilliamPenn-Smithfield" />
<vehicle type="noVar" depart="77" id="WilliamPenn-Seventh-Sixth.200" route="route_WilliamPenn-Seventh-Sixth.200" />
<route id="route_Forbes-Ross-Grant.316" edges="Forbes-Ross-Grant Grant-Forbes-Fourth" />
<vehicle type="noVar" depart="77" id="Forbes-Ross-Grant.316" route="route_Forbes-Ross-Grant.316" />
<route id="route_Grant-Fourth-Forbes.332" edges="Grant-Fourth-Forbes Grant-Fourth-Forbes-2 Forbes-Grant-WilliamPenn WilliamPenn-Forbes-Fourth" />
<vehicle type="noVar" depart="82" id="Grant-Fourth-Forbes.332" route="route_Grant-Fourth-Forbes.332" />
<route id="route_Oliver-Smithfield-WilliamPenn.15" edges="Oliver-Smithfield-WilliamPenn WilliamPenn-Oliver-Fifth Fifth-WilliamPenn-Smithfield" />
<vehicle type="noVar" depart="83" id="Oliver-Smithfield-WilliamPenn.15" route="route_Oliver-Smithfield-WilliamPenn.15" />
<route id="route_Fifth-Ross-Grant.162" edges="Fifth-Ross-Grant Fifth-Ross-Grant-2 Fifth-Grant-WilliamPenn WilliamPenn-Fifth-Forbes WilliamPenn-Forbes-Fourth" />
<vehicle type="noVar" depart="83" id="Fifth-Ross-Grant.162" route="route_Fifth-Ross-Grant.162" />
<route id="route_Grant-Fourth-Forbes.209" edges="Grant-Fourth-Forbes Grant-Fourth-Forbes-2 Grant-Forbes-Fifth Grant-Fifth-Oliver Grant-Oliver-Sixth Grant-Sixth-Seventh" />
<vehicle type="noVar" depart="83" id="Grant-Fourth-Forbes.209" route="route_Grant-Fourth-Forbes.209" />
<route id="route_Oliver-Smithfield-WilliamPenn.119" edges="Oliver-Smithfield-WilliamPenn WilliamPenn-Oliver-Fifth Fifth-WilliamPenn-Smithfield" />
<vehicle type="noVar" depart="86" id="Oliver-Smithfield-WilliamPenn.119" route="route_Oliver-Smithfield-WilliamPenn.119" />
<route id="route_Grant-Fourth-Forbes.471" edges="Grant-Fourth-Forbes Grant-Fourth-Forbes-2 Grant-Forbes-Fifth Grant-Fifth-Oliver Grant-Oliver-Sixth Sixth-Grant-Ross" />
<vehicle type="noVar" depart="86" id="Grant-Fourth-Forbes.471" route="route_Grant-Fourth-Forbes.471" />
<route id="route_Grant-Fourth-Forbes.346" edges="Grant-Fourth-Forbes Grant-Fourth-Forbes-2 Grant-Forbes-Fifth Fifth-Grant-WilliamPenn Fifth-WilliamPenn-Smithfield" />
<vehicle type="noVar" depart="89" id="Grant-Fourth-Forbes.346" route="route_Grant-Fourth-Forbes.346" />
<route id="route_Grant-Fourth-Forbes.551" edges="Grant-Fourth-Forbes Grant-Fourth-Forbes-2 Forbes-Grant-WilliamPenn Forbes-WilliamPenn-Smithfield" />
<vehicle type="noVar" depart="91" id="Grant-Fourth-Forbes.551" route="route_Grant-Fourth-Forbes.551" />
<route id="route_Fifth-Smithfield-WilliamPenn.102" edges="Fifth-Smithfield-WilliamPenn Fifth-WilliamPenn-Grant Fifth-Grant-Ross" />
<vehicle type="noVar" depart="95" id="Fifth-Smithfield-WilliamPenn.102" route="route_Fifth-Smithfield-WilliamPenn.102" />
<route id="route_Forbes-Ross-Grant.326" edges="Forbes-Ross-Grant Grant-Forbes-Fourth" />
<vehicle type="noVar" depart="96" id="Forbes-Ross-Grant.326" route="route_Forbes-Ross-Grant.326" />
<route id="route_Fifth-Ross-Grant.227" edges="Fifth-Ross-Grant Fifth-Ross-Grant-2 Fifth-Grant-WilliamPenn Fifth-WilliamPenn-Smithfield" />
<vehicle type="noVar" depart="98" id="Fifth-Ross-Grant.227" route="route_Fifth-Ross-Grant.227" />
<route id="route_Forbes-Ross-Grant.241" edges="Forbes-Ross-Grant Grant-Forbes-Fourth" />
<vehicle type="noVar" depart="100" id="Forbes-Ross-Grant.241" route="route_Forbes-Ross-Grant.241" />
<route id="route_Fifth-Ross-Grant.308" edges="Fifth-Ross-Grant Fifth-Ross-Grant-2 Fifth-Grant-WilliamPenn Fifth-WilliamPenn-Smithfield" />
<vehicle type="noVar" depart="101" id="Fifth-Ross-Grant.308" route="route_Fifth-Ross-Grant.308" />
<route id="route_Sixth-Ross-Grant.223" edges="Sixth-Ross-Grant Sixth-Grant-WilliamPenn Sixth-WilliamPenn-Smithfield" />
<vehicle type="noVar" depart="102" id="Sixth-Ross-Grant.223" route="route_Sixth-Ross-Grant.223" />
<route id="route_Fifth-Smithfield-WilliamPenn.74" edges="Fifth-Smithfield-WilliamPenn Fifth-WilliamPenn-Grant Fifth-Grant-Ross" />
<vehicle type="noVar" depart="103" id="Fifth-Smithfield-WilliamPenn.74" route="route_Fifth-Smithfield-WilliamPenn.74" />
<route id="route_Sixth-Ross-Grant.339" edges="Sixth-Ross-Grant Sixth-Grant-WilliamPenn WilliamPenn-Sixth-Oliver WilliamPenn-Oliver-Fifth WilliamPenn-Fifth-Forbes Forbes-WilliamPenn-Smithfield" />
<vehicle type="noVar" depart="105" id="Sixth-Ross-Grant.339" route="route_Sixth-Ross-Grant.339" />
<route id="route_Fifth-Ross-Grant.94" edges="Fifth-Ross-Grant Fifth-Ross-Grant-2 Fifth-Grant-WilliamPenn Fifth-WilliamPenn-Smithfield" />
<vehicle type="noVar" depart="106" id="Fifth-Ross-Grant.94" route="route_Fifth-Ross-Grant.94" />
<route id="route_Grant-Fourth-Forbes.483" edges="Grant-Fourth-Forbes Grant-Fourth-Forbes-2 Grant-Forbes-Fifth Grant-Fifth-Oliver Grant-Oliver-Sixth Grant-Sixth-Seventh" />
<vehicle type="noVar" depart="107" id="Grant-Fourth-Forbes.483" route="route_Grant-Fourth-Forbes.483" />
<route id="route_Forbes-Ross-Grant.248" edges="Forbes-Ross-Grant Forbes-Grant-WilliamPenn WilliamPenn-Forbes-Fourth" />
<vehicle type="noVar" depart="108" id="Forbes-Ross-Grant.248" route="route_Forbes-Ross-Grant.248" />
<route id="route_Grant-Fourth-Forbes.453" edges="Grant-Fourth-Forbes Grant-Fourth-Forbes-2 Forbes-Grant-Ross" />
<vehicle type="noVar" depart="110" id="Grant-Fourth-Forbes.453" route="route_Grant-Fourth-Forbes.453" />
<route id="route_Forbes-Ross-Grant.5" edges="Forbes-Ross-Grant Forbes-Grant-WilliamPenn Forbes-WilliamPenn-Smithfield" />
<vehicle type="noVar" depart="111" id="Forbes-Ross-Grant.5" route="route_Forbes-Ross-Grant.5" />
<route id="route_Grant-Fourth-Forbes.412" edges="Grant-Fourth-Forbes Grant-Fourth-Forbes-2 Grant-Forbes-Fifth Grant-Fifth-Oliver Grant-Oliver-Sixth Grant-Sixth-Seventh" />
<vehicle type="noVar" depart="113" id="Grant-Fourth-Forbes.412" route="route_Grant-Fourth-Forbes.412" />
<route id="route_WilliamPenn-Seventh-Sixth.203" edges="WilliamPenn-Seventh-Sixth WilliamPenn-Sixth-Oliver Oliver-WilliamPenn-Smithfield" />
<vehicle type="noVar" depart="114" id="WilliamPenn-Seventh-Sixth.203" route="route_WilliamPenn-Seventh-Sixth.203" />
<route id="route_Sixth-Ross-Grant.161" edges="Sixth-Ross-Grant Sixth-Grant-WilliamPenn Sixth-WilliamPenn-Smithfield" />
<vehicle type="noVar" depart="115" id="Sixth-Ross-Grant.161" route="route_Sixth-Ross-Grant.161" />
<route id="route_Grant-Fourth-Forbes.659" edges="Grant-Fourth-Forbes Grant-Fourth-Forbes-2 Grant-Forbes-Fifth Grant-Fifth-Oliver Grant-Oliver-Sixth Grant-Sixth-Seventh" />
<vehicle type="noVar" depart="116" id="Grant-Fourth-Forbes.659" route="route_Grant-Fourth-Forbes.659" />
<route id="route_Oliver-Smithfield-WilliamPenn.105" edges="Oliver-Smithfield-WilliamPenn Oliver-WilliamPenn-Grant Grant-Oliver-Sixth Grant-Sixth-Seventh" />
<vehicle type="noVar" depart="116" id="Oliver-Smithfield-WilliamPenn.105" route="route_Oliver-Smithfield-WilliamPenn.105" />
<route id="route_Forbes-Ross-Grant.64" edges="Forbes-Ross-Grant Grant-Forbes-Fifth Grant-Fifth-Oliver Grant-Oliver-Sixth Grant-Sixth-Seventh" />
<vehicle type="noVar" depart="117" id="Forbes-Ross-Grant.64" route="route_Forbes-Ross-Grant.64" />
<route id="route_Fifth-Ross-Grant.359" edges="Fifth-Ross-Grant Fifth-Ross-Grant-2 Grant-Fifth-Oliver Grant-Oliver-Sixth Sixth-Grant-WilliamPenn Sixth-WilliamPenn-Smithfield" />
<vehicle type="noVar" depart="118" id="Fifth-Ross-Grant.359" route="route_Fifth-Ross-Grant.359" />
<route id="route_WilliamPenn-Seventh-Sixth.117" edges="WilliamPenn-Seventh-Sixth WilliamPenn-Sixth-Oliver Oliver-WilliamPenn-Smithfield" />
<vehicle type="noVar" depart="120" id="WilliamPenn-Seventh-Sixth.117" route="route_WilliamPenn-Seventh-Sixth.117" />
<route id="route_Sixth-Ross-Grant.185" edges="Sixth-Ross-Grant Grant-Sixth-Seventh" />
<vehicle type="noVar" depart="123" id="Sixth-Ross-Grant.185" route="route_Sixth-Ross-Grant.185" />
<route id="route_Grant-Fourth-Forbes.436" edges="Grant-Fourth-Forbes Grant-Fourth-Forbes-2 Forbes-Grant-WilliamPenn WilliamPenn-Forbes-Fourth" />
<vehicle type="noVar" depart="124" id="Grant-Fourth-Forbes.436" route="route_Grant-Fourth-Forbes.436" />
<route id="route_Grant-Seventh-Sixth.157" edges="Grant-Seventh-Sixth Grant-Sixth-Oliver Grant-Oliver-Fifth Grant-Fifth-Forbes Grant-Forbes-Fourth" />
<vehicle type="noVar" depart="127" id="Grant-Seventh-Sixth.157" route="route_Grant-Seventh-Sixth.157" />
<route id="route_Grant-Fourth-Forbes.128" edges="Grant-Fourth-Forbes Grant-Fourth-Forbes-2 Grant-Forbes-Fifth Grant-Fifth-Oliver Grant-Oliver-Sixth Sixth-Grant-Ross" />
<vehicle type="noVar" depart="128" id="Grant-Fourth-Forbes.128" route="route_Grant-Fourth-Forbes.128" />
<route id="route_Forbes-Ross-Grant.301" edges="Forbes-Ross-Grant Grant-Forbes-Fourth" />
<vehicle type="noVar" depart="130" id="Forbes-Ross-Grant.301" route="route_Forbes-Ross-Grant.301" />
<route id="route_Grant-Fourth-Forbes.97" edges="Grant-Fourth-Forbes Grant-Fourth-Forbes-2 Grant-Forbes-Fifth Fifth-Grant-WilliamPenn Fifth-WilliamPenn-Smithfield" />
<vehicle type="noVar" depart="131" id="Grant-Fourth-Forbes.97" route="route_Grant-Fourth-Forbes.97" />
<route id="route_Grant-Seventh-Sixth.254" edges="Grant-Seventh-Sixth Grant-Sixth-Oliver Grant-Oliver-Fifth Fifth-Grant-Ross" />
<vehicle type="noVar" depart="132" id="Grant-Seventh-Sixth.254" route="route_Grant-Seventh-Sixth.254" />
<route id="route_Sixth-Ross-Grant.225" edges="Sixth-Ross-Grant Sixth-Grant-WilliamPenn Sixth-WilliamPenn-Smithfield" />
<vehicle type="noVar" depart="132" id="Sixth-Ross-Grant.225" route="route_Sixth-Ross-Grant.225" />
<route id="route_Grant-Fourth-Forbes.391" edges="Grant-Fourth-Forbes Grant-Fourth-Forbes-2 Grant-Forbes-Fifth Fifth-Grant-WilliamPenn Fifth-WilliamPenn-Smithfield" />
<vehicle type="noVar" depart="133" id="Grant-Fourth-Forbes.391" route="route_Grant-Fourth-Forbes.391" />
<route id="route_Forbes-Ross-Grant.307" edges="Forbes-Ross-Grant Forbes-Grant-WilliamPenn Forbes-WilliamPenn-Smithfield" />
<vehicle type="noVar" depart="133" id="Forbes-Ross-Grant.307" route="route_Forbes-Ross-Grant.307" />
<route id="route_WilliamPenn-Seventh-Sixth.198" edges="WilliamPenn-Seventh-Sixth Sixth-WilliamPenn-Grant Sixth-Grant-Ross" />
<vehicle type="noVar" depart="134" id="WilliamPenn-Seventh-Sixth.198" route="route_WilliamPenn-Seventh-Sixth.198" />
<route id="route_Sixth-Smithfield-WilliamPenn.106" edges="Sixth-Smithfield-WilliamPenn Sixth-WilliamPenn-Grant Sixth-Grant-Ross" />
<vehicle type="noVar" depart="136" id="Sixth-Smithfield-WilliamPenn.106" route="route_Sixth-Smithfield-WilliamPenn.106" />
<route id="route_WilliamPenn-Seventh-Sixth.135" edges="WilliamPenn-Seventh-Sixth Sixth-WilliamPenn-Grant Grant-Sixth-Seventh" />
<vehicle type="noVar" depart="137" id="WilliamPenn-Seventh-Sixth.135" route="route_WilliamPenn-Seventh-Sixth.135" />
<route id="route_Grant-Seventh-Sixth.127" edges="Grant-Seventh-Sixth Grant-Sixth-Oliver Grant-Oliver-Fifth Grant-Fifth-Forbes Forbes-Grant-Ross" />
<vehicle type="noVar" depart="137" id="Grant-Seventh-Sixth.127" route="route_Grant-Seventh-Sixth.127" />
<route id="route_Forbes-Ross-Grant.129" edges="Forbes-Ross-Grant Forbes-Grant-WilliamPenn WilliamPenn-Forbes-Fourth" />
<vehicle type="noVar" depart="138" id="Forbes-Ross-Grant.129" route="route_Forbes-Ross-Grant.129" />
<route id="route_Grant-Fourth-Forbes.66" edges="Grant-Fourth-Forbes Grant-Fourth-Forbes-2 Forbes-Grant-WilliamPenn WilliamPenn-Forbes-Fourth" />
<vehicle type="noVar" depart="139" id="Grant-Fourth-Forbes.66" route="route_Grant-Fourth-Forbes.66" />
<route id="route_Grant-Seventh-Sixth.76" edges="Grant-Seventh-Sixth Grant-Sixth-Oliver Grant-Oliver-Fifth Grant-Fifth-Forbes Grant-Forbes-Fourth" />
<vehicle type="noVar" depart="140" id="Grant-Seventh-Sixth.76" route="route_Grant-Seventh-Sixth.76" />
<route id="route_Sixth-Smithfield-WilliamPenn.237" edges="Sixth-Smithfield-WilliamPenn WilliamPenn-Sixth-Oliver WilliamPenn-Oliver-Fifth WilliamPenn-Fifth-Forbes WilliamPenn-Forbes-Fourth" />
<vehicle type="noVar" depart="141" id="Sixth-Smithfield-WilliamPenn.237" route="route_Sixth-Smithfield-WilliamPenn.237" />
<route id="route_Oliver-Smithfield-WilliamPenn.92" edges="Oliver-Smithfield-WilliamPenn Oliver-WilliamPenn-Grant Grant-Oliver-Sixth Sixth-Grant-Ross" />