<?xml version="1.0" encoding="UTF-8"?>

<!-- generated on 2022-08-07 16:48:10 by Eclipse SUMO netedit Version 1.11.0
<configuration xmlns:xsi="http://www.w3.org/2001/XMLSchema-instance" xsi:noNamespaceSchemaLocation="http://sumo.dlr.de/xsd/netconvertConfiguration.xsd">

    <input>
        <sumo-net-file value="/Users/davidneiman/Documents/GitHub.nosync/traffic-routing/surtrac_test/pittsburghsmaller2.net.xml"/>
    </input>

    <output>
        <output-file value="/Users/davidneiman/Documents/GitHub.nosync/traffic-routing/surtrac_test/pittsburghsmaller2.net.xml"/>
        <output.street-names value="true"/>
    </output>

    <processing>
        <geometry.min-radius.fix.railways value="false"/>
        <geometry.max-grade.fix value="false"/>
        <offset.disable-normalization value="true"/>
        <lefthand value="false"/>
    </processing>

    <junctions>
        <no-turnarounds value="true"/>
        <junctions.corner-detail value="5"/>
        <junctions.limit-turn-speed value="5.5"/>
        <rectangular-lane-cut value="false"/>
    </junctions>

    <pedestrian>
        <walkingareas value="false"/>
    </pedestrian>

    <report>
        <aggregate-warnings value="5"/>
    </report>

</configuration>
-->

<net version="1.9" junctionCornerDetail="5" limitTurnSpeed="5.50" xmlns:xsi="http://www.w3.org/2001/XMLSchema-instance" xsi:noNamespaceSchemaLocation="http://sumo.dlr.de/xsd/net_file.xsd">

    <location netOffset="-584408.72,-4476613.85" convBoundary="481.98,196.10,889.88,660.08" origBoundary="-80.004731,40.435799,-79.988268,40.445849" projParameter="+proj=utm +zone=17 +ellps=WGS84 +datum=WGS84 +units=m +no_defs"/>

    <type id="highway.bridleway" priority="1" numLanes="1" speed="2.78" allow="pedestrian" oneway="1" width="2.00"/>
    <type id="highway.bus_guideway" priority="1" numLanes="1" speed="27.78" allow="bus" oneway="1"/>
    <type id="highway.cycleway" priority="1" numLanes="1" speed="8.33" allow="bicycle" oneway="0" width="1.00"/>
    <type id="highway.footway" priority="1" numLanes="1" speed="2.78" allow="pedestrian" oneway="1" width="2.00"/>
    <type id="highway.ford" priority="1" numLanes="1" speed="2.78" allow="army" oneway="0"/>
    <type id="highway.living_street" priority="2" numLanes="1" speed="2.78" disallow="tram rail_urban rail rail_electric rail_fast ship" oneway="0"/>
    <type id="highway.motorway" priority="14" numLanes="2" speed="39.44" allow="private emergency authority army vip passenger hov taxi bus coach delivery truck trailer motorcycle evehicle custom1 custom2" oneway="1"/>
    <type id="highway.motorway_link" priority="9" numLanes="1" speed="22.22" allow="private emergency authority army vip passenger hov taxi bus coach delivery truck trailer motorcycle evehicle custom1 custom2" oneway="1"/>
    <type id="highway.path" priority="1" numLanes="1" speed="2.78" allow="pedestrian bicycle" oneway="0" width="2.00"/>
    <type id="highway.pedestrian" priority="1" numLanes="1" speed="2.78" allow="pedestrian" oneway="1" width="2.00"/>
    <type id="highway.primary" priority="12" numLanes="2" speed="27.78" disallow="tram rail_urban rail rail_electric rail_fast ship" oneway="0"/>
    <type id="highway.primary_link" priority="7" numLanes="1" speed="22.22" disallow="tram rail_urban rail rail_electric rail_fast ship" oneway="0"/>
    <type id="highway.raceway" priority="15" numLanes="2" speed="83.33" allow="vip" oneway="0"/>
    <type id="highway.residential" priority="3" numLanes="1" speed="13.89" disallow="tram rail_urban rail rail_electric rail_fast ship" oneway="0"/>
    <type id="highway.secondary" priority="11" numLanes="1" speed="27.78" disallow="tram rail_urban rail rail_electric rail_fast ship" oneway="0"/>
    <type id="highway.secondary_link" priority="6" numLanes="1" speed="22.22" disallow="tram rail_urban rail rail_electric rail_fast ship" oneway="0"/>
    <type id="highway.service" priority="1" numLanes="1" speed="5.56" allow="pedestrian delivery bicycle" oneway="0"/>
    <type id="highway.stairs" priority="1" numLanes="1" speed="1.39" allow="pedestrian" oneway="1" width="2.00"/>
    <type id="highway.step" priority="1" numLanes="1" speed="1.39" allow="pedestrian" oneway="1" width="2.00"/>
    <type id="highway.steps" priority="1" numLanes="1" speed="1.39" allow="pedestrian" oneway="1" width="2.00"/>
    <type id="highway.tertiary" priority="10" numLanes="1" speed="22.22" disallow="tram rail_urban rail rail_electric rail_fast ship" oneway="0"/>
    <type id="highway.tertiary_link" priority="5" numLanes="1" speed="22.22" disallow="tram rail_urban rail rail_electric rail_fast ship" oneway="0"/>
    <type id="highway.track" priority="1" numLanes="1" speed="5.56" allow="pedestrian motorcycle moped bicycle" oneway="0"/>
    <type id="highway.trunk" priority="13" numLanes="2" speed="27.78" disallow="pedestrian bicycle tram rail_urban rail rail_electric rail_fast ship" oneway="0"/>
    <type id="highway.trunk_link" priority="8" numLanes="1" speed="22.22" disallow="pedestrian bicycle tram rail_urban rail rail_electric rail_fast ship" oneway="0"/>
    <type id="highway.unclassified" priority="4" numLanes="1" speed="13.89" disallow="tram rail_urban rail rail_electric rail_fast ship" oneway="0"/>
    <type id="highway.unsurfaced" priority="1" numLanes="1" speed="8.33" disallow="tram rail_urban rail rail_electric rail_fast ship" oneway="0"/>
    <type id="railway.highspeed" priority="21" numLanes="1" speed="69.44" allow="rail_fast" oneway="1"/>
    <type id="railway.light_rail" priority="19" numLanes="1" speed="27.78" allow="rail_urban" oneway="1"/>
    <type id="railway.preserved" priority="16" numLanes="1" speed="27.78" allow="rail" oneway="1"/>
    <type id="railway.rail" priority="20" numLanes="1" speed="44.44" allow="rail" oneway="1"/>
    <type id="railway.subway" priority="18" numLanes="1" speed="27.78" allow="rail_urban" oneway="1"/>
    <type id="railway.tram" priority="17" numLanes="1" speed="13.89" allow="tram" oneway="1"/>

    <edge id=":4459167069_0" function="internal">
        <lane id=":4459167069_0_0" index="0" disallow="tram rail_urban rail rail_electric rail_fast ship" speed="27.78" length="8.40" shape="726.83,373.37 724.82,374.88 723.90,376.53 722.98,378.18 720.97,379.69"/>
        <lane id=":4459167069_0_1" index="1" disallow="tram rail_urban rail rail_electric rail_fast ship" speed="27.78" length="8.40" shape="726.83,373.37 719.60,376.80"/>
    </edge>
    <edge id=":4459167069_2" function="internal">
        <lane id=":4459167069_2_0" index="0" disallow="tram rail_urban rail rail_electric rail_fast ship" speed="27.78" length="8.80" shape="716.86,371.01 719.30,370.41 721.16,370.75 723.02,371.08 725.46,370.48"/>
    </edge>
    <edge id=":9602381234_0" function="internal">
        <lane id=":9602381234_0_0" index="0" disallow="tram rail_urban rail rail_electric rail_fast ship" speed="11.18" length="8.21" shape="624.39,285.48 625.69,287.51 626.90,288.69 628.12,289.88 629.42,291.91"/>
        <lane id=":9602381234_0_1" index="1" disallow="tram rail_urban rail rail_electric rail_fast ship" speed="11.18" length="8.21" shape="621.53,286.91 622.83,288.94 624.05,290.13 625.26,291.31 626.56,293.34"/>
        <lane id=":9602381234_0_2" index="2" disallow="tram rail_urban rail rail_electric rail_fast ship" speed="11.18" length="8.21" shape="621.53,286.91 622.39,289.17 622.62,290.85 622.84,292.53 623.70,294.78"/>
    </edge>
    <edge id=":cluster_104472649_1362263119_684800917_8484285016_8484318434_8486322131_8486322133_0" function="internal">
        <lane id=":cluster_104472649_1362263119_684800917_8484285016_8484318434_8486322131_8486322133_0_0" index="0" disallow="pedestrian bicycle tram rail_urban rail rail_electric rail_fast ship" speed="7.36" length="10.96" shape="835.20,526.97 833.22,524.17 831.10,522.48 828.83,521.92 826.41,522.47"/>
    </edge>
    <edge id=":cluster_104472649_1362263119_684800917_8484285016_8484318434_8486322131_8486322133_1" function="internal">
        <lane id=":cluster_104472649_1362263119_684800917_8484285016_8484318434_8486322131_8486322133_1_0" index="0" disallow="pedestrian bicycle tram rail_urban rail rail_electric rail_fast ship" speed="27.78" length="26.90" shape="838.16,525.70 834.55,518.10 832.78,512.08 831.56,506.51 829.56,500.26"/>
        <lane id=":cluster_104472649_1362263119_684800917_8484285016_8484318434_8486322131_8486322133_1_1" index="1" disallow="pedestrian bicycle tram rail_urban rail rail_electric rail_fast ship" speed="27.78" length="26.90" shape="841.11,524.42 837.51,516.85 835.75,510.85 834.52,505.30 832.53,499.07"/>
    </edge>
    <edge id=":cluster_104472649_1362263119_684800917_8484285016_8484318434_8486322131_8486322133_3" function="internal">
        <lane id=":cluster_104472649_1362263119_684800917_8484285016_8484318434_8486322131_8486322133_3_0" index="0" disallow="pedestrian bicycle tram rail_urban rail rail_electric rail_fast ship" speed="9.90" length="13.02" shape="841.11,524.42 838.87,518.44 839.36,513.24 840.19,512.10"/>
    </edge>
    <edge id=":cluster_104472649_1362263119_684800917_8484285016_8484318434_8486322131_8486322133_18" function="internal">
        <lane id=":cluster_104472649_1362263119_684800917_8484285016_8484318434_8486322131_8486322133_18_0" index="0" disallow="pedestrian bicycle tram rail_urban rail rail_electric rail_fast ship" speed="9.90" length="11.01" shape="840.19,512.10 842.58,508.84 848.54,505.23"/>
    </edge>
    <edge id=":cluster_104472649_1362263119_684800917_8484285016_8484318434_8486322131_8486322133_4" function="internal">
        <lane id=":cluster_104472649_1362263119_684800917_8484285016_8484318434_8486322131_8486322133_4_0" index="0" disallow="pedestrian bicycle tram rail_urban rail rail_electric rail_fast ship" speed="7.22" length="11.30" shape="851.34,510.99 849.27,512.46 848.26,514.59 848.31,517.38 849.42,520.82"/>
    </edge>
    <edge id=":cluster_104472649_1362263119_684800917_8484285016_8484318434_8486322131_8486322133_5" function="internal">
        <lane id=":cluster_104472649_1362263119_684800917_8484285016_8484318434_8486322131_8486322133_5_0" index="0" disallow="tram rail_urban rail rail_electric rail_fast ship" speed="27.78" length="27.39" shape="851.34,510.99 826.41,522.47"/>
        <lane id=":cluster_104472649_1362263119_684800917_8484285016_8484318434_8486322131_8486322133_5_1" index="1" disallow="tram rail_urban rail rail_electric rail_fast ship" speed="27.78" length="27.39" shape="849.94,508.11 825.11,519.54"/>
    </edge>
    <edge id=":cluster_104472649_1362263119_684800917_8484285016_8484318434_8486322131_8486322133_7" function="internal">
        <lane id=":cluster_104472649_1362263119_684800917_8484285016_8484318434_8486322131_8486322133_7_0" index="0" disallow="tram rail_urban rail rail_electric rail_fast ship" speed="9.83" length="6.54" shape="849.94,508.11 844.47,509.47 843.59,509.27"/>
    </edge>
    <edge id=":cluster_104472649_1362263119_684800917_8484285016_8484318434_8486322131_8486322133_19" function="internal">
        <lane id=":cluster_104472649_1362263119_684800917_8484285016_8484318434_8486322131_8486322133_19_0" index="0" disallow="tram rail_urban rail rail_electric rail_fast ship" speed="9.83" length="15.93" shape="843.59,509.27 839.74,508.41 835.76,504.95 832.53,499.07"/>
    </edge>
    <edge id=":cluster_104472649_1362263119_684800917_8484285016_8484318434_8486322131_8486322133_8" function="internal">
        <lane id=":cluster_104472649_1362263119_684800917_8484285016_8484318434_8486322131_8486322133_8_0" index="0" disallow="tram rail_urban rail rail_electric rail_fast ship" speed="6.36" length="9.04" shape="838.47,496.67 839.72,498.83 841.36,500.02 843.36,500.24 845.74,499.47"/>
    </edge>
    <edge id=":cluster_104472649_1362263119_684800917_8484285016_8484318434_8486322131_8486322133_9" function="internal">
        <lane id=":cluster_104472649_1362263119_684800917_8484285016_8484318434_8486322131_8486322133_9_0" index="0" disallow="pedestrian bicycle tram rail_urban rail rail_electric rail_fast ship" speed="27.78" length="26.56" shape="838.47,496.67 849.42,520.82"/>
        <lane id=":cluster_104472649_1362263119_684800917_8484285016_8484318434_8486322131_8486322133_9_1" index="1" disallow="pedestrian bicycle tram rail_urban rail rail_electric rail_fast ship" speed="27.78" length="26.56" shape="835.50,497.87 846.48,522.10"/>
    </edge>
    <edge id=":cluster_104472649_1362263119_684800917_8484285016_8484318434_8486322131_8486322133_11" function="internal">
        <lane id=":cluster_104472649_1362263119_684800917_8484285016_8484318434_8486322131_8486322133_11_0" index="0" disallow="tram rail_urban rail rail_electric rail_fast ship" speed="11.03" length="9.38" shape="835.50,497.87 837.04,504.64 836.54,507.03"/>
    </edge>
    <edge id=":cluster_104472649_1362263119_684800917_8484285016_8484318434_8486322131_8486322133_20" function="internal">
        <lane id=":cluster_104472649_1362263119_684800917_8484285016_8484318434_8486322131_8486322133_20_0" index="0" disallow="tram rail_urban rail rail_electric rail_fast ship" speed="11.03" length="17.79" shape="836.54,507.03 835.82,510.51 831.84,515.48 825.11,519.54"/>
    </edge>
    <edge id=":cluster_104472649_1362263119_684800917_8484285016_8484318434_8486322131_8486322133_12" function="internal">
        <lane id=":cluster_104472649_1362263119_684800917_8484285016_8484318434_8486322131_8486322133_12_0" index="0" disallow="tram rail_urban rail rail_electric rail_fast ship" speed="8.27" length="14.83" shape="821.21,510.77 825.73,508.33 828.64,505.77 829.91,503.08 829.56,500.26"/>
    </edge>
    <edge id=":cluster_104472649_1362263119_684800917_8484285016_8484318434_8486322131_8486322133_13" function="internal">
        <lane id=":cluster_104472649_1362263119_684800917_8484285016_8484318434_8486322131_8486322133_13_0" index="0" disallow="tram rail_urban rail rail_electric rail_fast ship" speed="27.78" length="27.01" shape="821.21,510.77 845.74,499.47"/>
    </edge>
    <edge id=":cluster_104472649_1362263119_684800917_8484285016_8484318434_8486322131_8486322133_14" function="internal">
        <lane id=":cluster_104472649_1362263119_684800917_8484285016_8484318434_8486322131_8486322133_14_0" index="0" disallow="tram rail_urban rail rail_electric rail_fast ship" speed="9.48" length="9.78" shape="822.51,513.70 828.20,510.53 830.54,508.24"/>
    </edge>
    <edge id=":cluster_104472649_1362263119_684800917_8484285016_8484318434_8486322131_8486322133_15" function="internal">
        <lane id=":cluster_104472649_1362263119_684800917_8484285016_8484318434_8486322131_8486322133_15_0" index="0" disallow="tram rail_urban rail rail_electric rail_fast ship" speed="27.78" length="27.17" shape="822.51,513.70 847.14,502.35"/>
        <lane id=":cluster_104472649_1362263119_684800917_8484285016_8484318434_8486322131_8486322133_15_1" index="1" disallow="tram rail_urban rail rail_electric rail_fast ship" speed="27.78" length="27.17" shape="823.81,516.62 848.54,505.23"/>
    </edge>
    <edge id=":cluster_104472649_1362263119_684800917_8484285016_8484318434_8486322131_8486322133_17" function="internal">
        <lane id=":cluster_104472649_1362263119_684800917_8484285016_8484318434_8486322131_8486322133_17_0" index="0" disallow="pedestrian bicycle tram rail_urban rail rail_electric rail_fast ship" speed="10.72" length="9.60" shape="823.81,516.62 831.61,514.12 833.02,514.14"/>
    </edge>
    <edge id=":cluster_104472649_1362263119_684800917_8484285016_8484318434_8486322131_8486322133_21" function="internal">
        <lane id=":cluster_104472649_1362263119_684800917_8484285016_8484318434_8486322131_8486322133_21_0" index="0" disallow="tram rail_urban rail rail_electric rail_fast ship" speed="9.48" length="10.01" shape="830.54,508.24 831.77,507.03 833.21,503.21 832.53,499.07"/>
    </edge>
    <edge id=":cluster_104472649_1362263119_684800917_8484285016_8484318434_8486322131_8486322133_22" function="internal">
        <lane id=":cluster_104472649_1362263119_684800917_8484285016_8484318434_8486322131_8486322133_22_0" index="0" disallow="pedestrian bicycle tram rail_urban rail rail_electric rail_fast ship" speed="10.72" length="16.91" shape="833.02,514.14 837.99,514.20 842.95,516.86 846.48,522.10"/>
    </edge>
    <edge id=":cluster_104572636_8484443882_8484452939_8484452945_8484452946_0" function="internal">
        <lane id=":cluster_104572636_8484443882_8484452939_8484452945_8484452946_0_0" index="0" disallow="tram rail_urban rail rail_electric rail_fast ship" speed="7.31" length="11.20" shape="679.85,594.35 678.22,592.39 676.03,591.47 673.28,591.60 669.96,592.78"/>
    </edge>
    <edge id=":cluster_104572636_8484443882_8484452939_8484452945_8484452946_1" function="internal">
        <lane id=":cluster_104572636_8484443882_8484452939_8484452945_8484452946_1_0" index="0" disallow="tram rail_urban rail rail_electric rail_fast ship" speed="13.89" length="20.99" shape="679.85,594.35 669.76,575.95"/>
    </edge>
    <edge id=":cluster_104572636_8484443882_8484452939_8484452945_8484452946_2" function="internal">
        <lane id=":cluster_104572636_8484443882_8484452939_8484452945_8484452946_2_0" index="0" disallow="tram rail_urban rail rail_electric rail_fast ship" speed="8.02" length="14.70" shape="679.85,594.35 677.67,589.55 676.88,585.74 677.46,582.93 679.43,581.13"/>
    </edge>
    <edge id=":cluster_104572636_8484443882_8484452939_8484452945_8484452946_3" function="internal">
        <lane id=":cluster_104572636_8484443882_8484452939_8484452945_8484452946_3_0" index="0" disallow="tram rail_urban rail rail_electric rail_fast ship" speed="22.22" length="13.60" shape="682.24,586.88 669.96,592.78"/>
        <lane id=":cluster_104572636_8484443882_8484452939_8484452945_8484452946_3_1" index="1" disallow="tram rail_urban rail rail_electric rail_fast ship" speed="22.22" length="13.60" shape="680.84,584.00 668.59,589.89"/>
    </edge>
    <edge id=":cluster_104572636_8484443882_8484452939_8484452945_8484452946_5" function="internal">
        <lane id=":cluster_104572636_8484443882_8484452939_8484452945_8484452946_5_0" index="0" disallow="tram rail_urban rail rail_electric rail_fast ship" speed="8.36" length="3.81" shape="680.84,584.00 678.20,584.45 677.16,583.99"/>
    </edge>
    <edge id=":cluster_104572636_8484443882_8484452939_8484452945_8484452946_9" function="internal">
        <lane id=":cluster_104572636_8484443882_8484452939_8484452945_8484452946_9_0" index="0" disallow="tram rail_urban rail rail_electric rail_fast ship" speed="8.36" length="11.16" shape="677.16,583.99 675.48,583.26 672.67,580.42 669.76,575.95"/>
    </edge>
    <edge id=":cluster_104572636_8484443882_8484452939_8484452945_8484452946_6" function="internal">
        <lane id=":cluster_104572636_8484443882_8484452939_8484452945_8484452946_6_0" index="0" disallow="tram rail_urban rail rail_electric rail_fast ship" speed="6.78" length="10.41" shape="665.86,584.10 668.61,582.41 670.18,580.48 670.56,578.33 669.76,575.95"/>
    </edge>
    <edge id=":cluster_104572636_8484443882_8484452939_8484452945_8484452946_7" function="internal">
        <lane id=":cluster_104572636_8484443882_8484452939_8484452945_8484452946_7_0" index="0" disallow="tram rail_urban rail rail_electric rail_fast ship" speed="22.22" length="13.51" shape="665.86,584.10 678.02,578.26"/>
        <lane id=":cluster_104572636_8484443882_8484452939_8484452945_8484452946_7_1" index="1" disallow="tram rail_urban rail rail_electric rail_fast ship" speed="22.22" length="13.51" shape="667.23,586.99 679.43,581.13"/>
    </edge>
    <edge id=":cluster_104572642_4599846707_8484284983_8484443873_8484443874_8484443879_8484443880_8484443881_0" function="internal">
        <lane id=":cluster_104572642_4599846707_8484284983_8484443873_8484443874_8484443879_8484443880_8484443881_0_0" index="0" disallow="tram rail_urban rail rail_electric rail_fast ship" speed="6.73" length="9.69" shape="747.71,561.78 746.17,559.50 744.34,558.23 742.20,557.97 739.76,558.73"/>
    </edge>
    <edge id=":cluster_104572642_4599846707_8484284983_8484443873_8484443874_8484443879_8484443880_8484443881_1" function="internal">
        <lane id=":cluster_104572642_4599846707_8484284983_8484443873_8484443874_8484443879_8484443880_8484443881_1_0" index="0" disallow="tram rail_urban rail rail_electric rail_fast ship" speed="11.18" length="23.99" shape="747.71,561.78 736.90,540.37"/>
        <lane id=":cluster_104572642_4599846707_8484284983_8484443873_8484443874_8484443879_8484443880_8484443881_1_1" index="1" disallow="tram rail_urban rail rail_electric rail_fast ship" speed="11.18" length="23.99" shape="750.56,560.34 739.75,538.92"/>
    </edge>
    <edge id=":cluster_104572642_4599846707_8484284983_8484443873_8484443874_8484443879_8484443880_8484443881_3" function="internal">
        <lane id=":cluster_104572642_4599846707_8484284983_8484443873_8484443874_8484443879_8484443880_8484443881_3_0" index="0" disallow="tram rail_urban rail rail_electric rail_fast ship" speed="9.62" length="10.86" shape="750.56,560.34 748.93,554.89 749.80,550.20 750.05,549.90"/>
    </edge>
    <edge id=":cluster_104572642_4599846707_8484284983_8484443873_8484443874_8484443879_8484443880_8484443881_16" function="internal">
        <lane id=":cluster_104572642_4599846707_8484284983_8484443873_8484443874_8484443879_8484443880_8484443881_16_0" index="0" disallow="tram rail_urban rail rail_electric rail_fast ship" speed="9.62" length="11.46" shape="750.05,549.90 753.16,546.26 759.03,543.08"/>
    </edge>
    <edge id=":cluster_104572642_4599846707_8484284983_8484443873_8484443874_8484443879_8484443880_8484443881_4" function="internal">
        <lane id=":cluster_104572642_4599846707_8484284983_8484443873_8484443874_8484443879_8484443880_8484443881_4_0" index="0" disallow="tram rail_urban rail rail_electric rail_fast ship" speed="6.32" length="9.04" shape="761.37,549.03 759.19,550.28 758.01,551.90 757.81,553.90 758.61,556.28"/>
    </edge>
    <edge id=":cluster_104572642_4599846707_8484284983_8484443873_8484443874_8484443879_8484443880_8484443881_5" function="internal">
        <lane id=":cluster_104572642_4599846707_8484284983_8484443873_8484443874_8484443879_8484443880_8484443881_5_0" index="0" disallow="tram rail_urban rail rail_electric rail_fast ship" speed="25.00" length="23.82" shape="761.37,549.03 739.76,558.73"/>
        <lane id=":cluster_104572642_4599846707_8484284983_8484443873_8484443874_8484443879_8484443880_8484443881_5_1" index="1" disallow="tram rail_urban rail rail_electric rail_fast ship" speed="25.00" length="23.82" shape="760.20,546.05 738.36,555.85"/>
    </edge>
    <edge id=":cluster_104572642_4599846707_8484284983_8484443873_8484443874_8484443879_8484443880_8484443881_7" function="internal">
        <lane id=":cluster_104572642_4599846707_8484284983_8484443873_8484443874_8484443879_8484443880_8484443881_7_0" index="0" disallow="tram rail_urban rail rail_electric rail_fast ship" speed="10.69" length="7.51" shape="760.20,546.05 753.68,547.67 752.89,547.58"/>
    </edge>
    <edge id=":cluster_104572642_4599846707_8484284983_8484443873_8484443874_8484443879_8484443880_8484443881_17" function="internal">
        <lane id=":cluster_104572642_4599846707_8484284983_8484443873_8484443874_8484443879_8484443880_8484443881_17_0" index="0" disallow="tram rail_urban rail rail_electric rail_fast ship" speed="10.69" length="16.69" shape="752.89,547.58 748.10,547.02 743.46,544.10 739.75,538.92"/>
    </edge>
    <edge id=":cluster_104572642_4599846707_8484284983_8484443873_8484443874_8484443879_8484443880_8484443881_8" function="internal">
        <lane id=":cluster_104572642_4599846707_8484284983_8484443873_8484443874_8484443879_8484443880_8484443881_8_0" index="0" disallow="tram rail_urban rail rail_electric rail_fast ship" speed="7.09" length="10.20" shape="747.85,534.77 749.31,536.74 751.27,537.80 753.73,537.92 756.68,537.12"/>
    </edge>
    <edge id=":cluster_104572642_4599846707_8484284983_8484443873_8484443874_8484443879_8484443880_8484443881_9" function="internal">
        <lane id=":cluster_104572642_4599846707_8484284983_8484443873_8484443874_8484443879_8484443880_8484443881_9_0" index="0" disallow="tram rail_urban rail rail_electric rail_fast ship" speed="19.48" length="24.04" shape="747.85,534.77 758.61,556.28"/>
        <lane id=":cluster_104572642_4599846707_8484284983_8484443873_8484443874_8484443879_8484443880_8484443881_9_1" index="1" disallow="tram rail_urban rail rail_electric rail_fast ship" speed="19.48" length="24.04" shape="745.00,536.23 755.76,557.72"/>
    </edge>
    <edge id=":cluster_104572642_4599846707_8484284983_8484443873_8484443874_8484443879_8484443880_8484443881_11" function="internal">
        <lane id=":cluster_104572642_4599846707_8484284983_8484443873_8484443874_8484443879_8484443880_8484443881_11_0" index="0" disallow="tram rail_urban rail rail_electric rail_fast ship" speed="10.16" length="12.50" shape="745.00,536.23 747.05,542.40 746.62,547.73 746.27,548.28"/>
    </edge>
    <edge id=":cluster_104572642_4599846707_8484284983_8484443873_8484443874_8484443879_8484443880_8484443881_18" function="internal">
        <lane id=":cluster_104572642_4599846707_8484284983_8484443873_8484443874_8484443879_8484443880_8484443881_18_0" index="0" disallow="tram rail_urban rail rail_electric rail_fast ship" speed="10.16" length="11.17" shape="746.27,548.28 743.72,552.22 738.36,555.85"/>
    </edge>
    <edge id=":cluster_104572642_4599846707_8484284983_8484443873_8484443874_8484443879_8484443880_8484443881_12" function="internal">
        <lane id=":cluster_104572642_4599846707_8484284983_8484443873_8484443874_8484443879_8484443880_8484443881_12_0" index="0" disallow="tram rail_urban rail rail_electric rail_fast ship" speed="7.10" length="11.13" shape="735.55,550.10 737.54,548.57 738.42,546.44 738.21,543.70 736.90,540.37"/>
    </edge>
    <edge id=":cluster_104572642_4599846707_8484284983_8484443873_8484443874_8484443879_8484443880_8484443881_13" function="internal">
        <lane id=":cluster_104572642_4599846707_8484284983_8484443873_8484443874_8484443879_8484443880_8484443881_13_0" index="0" disallow="tram rail_urban rail rail_electric rail_fast ship" speed="25.00" length="24.31" shape="735.55,550.10 757.85,540.10"/>
        <lane id=":cluster_104572642_4599846707_8484284983_8484443873_8484443874_8484443879_8484443880_8484443881_13_1" index="1" disallow="tram rail_urban rail rail_electric rail_fast ship" speed="25.00" length="24.31" shape="736.95,552.98 759.03,543.08"/>
    </edge>
    <edge id=":cluster_104572642_4599846707_8484284983_8484443873_8484443874_8484443879_8484443880_8484443881_15" function="internal">
        <lane id=":cluster_104572642_4599846707_8484284983_8484443873_8484443874_8484443879_8484443880_8484443881_15_0" index="0" disallow="tram rail_urban rail rail_electric rail_fast ship" speed="9.89" length="8.87" shape="736.95,552.98 743.07,550.87 745.47,550.91"/>
    </edge>
    <edge id=":cluster_104572642_4599846707_8484284983_8484443873_8484443874_8484443879_8484443880_8484443881_19" function="internal">
        <lane id=":cluster_104572642_4599846707_8484284983_8484443873_8484443874_8484443879_8484443880_8484443881_19_0" index="0" disallow="tram rail_urban rail rail_electric rail_fast ship" speed="9.89" length="13.14" shape="745.47,550.91 748.24,550.96 752.47,553.24 755.76,557.72"/>
    </edge>
    <edge id=":cluster_104945598_8484284971_8484443912_8484445225_0" function="internal">
        <lane id=":cluster_104945598_8484284971_8484443912_8484445225_0_0" index="0" disallow="tram rail_urban rail rail_electric rail_fast ship" speed="6.54" length="9.08" shape="556.94,366.86 555.56,364.81 553.84,363.70 551.79,363.51 549.40,364.26"/>
    </edge>
    <edge id=":cluster_104945598_8484284971_8484443912_8484445225_1" function="internal">
        <lane id=":cluster_104945598_8484284971_8484443912_8484445225_1_0" index="0" disallow="tram rail_urban rail rail_electric rail_fast ship" speed="13.89" length="17.60" shape="556.94,366.86 549.26,351.02"/>
    </edge>
    <edge id=":cluster_104945598_8484284971_8484443912_8484445225_2" function="internal">
        <lane id=":cluster_104945598_8484284971_8484443912_8484445225_2_0" index="0" disallow="tram rail_urban rail rail_electric rail_fast ship" speed="22.22" length="11.75" shape="558.09,356.56 555.26,358.47 553.75,360.41 552.23,362.36 549.40,364.26"/>
        <lane id=":cluster_104945598_8484284971_8484443912_8484445225_2_1" index="1" disallow="tram rail_urban rail rail_electric rail_fast ship" speed="22.22" length="11.75" shape="556.71,353.68 553.88,355.58 552.37,357.53 550.85,359.47 548.02,361.38"/>
    </edge>
    <edge id=":cluster_104945598_8484284971_8484443912_8484445225_4" function="internal">
        <lane id=":cluster_104945598_8484284971_8484443912_8484445225_4_0" index="0" disallow="tram rail_urban rail rail_electric rail_fast ship" speed="6.51" length="5.39" shape="556.71,353.68 554.37,354.41 552.35,354.21 551.59,353.71"/>
    </edge>
    <edge id=":cluster_104945598_8484284971_8484443912_8484445225_6" function="internal">
        <lane id=":cluster_104945598_8484284971_8484443912_8484445225_6_0" index="0" disallow="tram rail_urban rail rail_electric rail_fast ship" speed="6.51" length="3.62" shape="551.59,353.71 550.64,353.08 549.26,351.02"/>
    </edge>
    <edge id=":cluster_104945598_8484284971_8484443912_8484445225_5" function="internal">
        <lane id=":cluster_104945598_8484284971_8484443912_8484445225_5_0" index="0" disallow="tram rail_urban rail rail_electric rail_fast ship" speed="6.49" length="9.03" shape="546.65,358.49 548.71,357.11 549.83,355.41 550.02,353.38 549.26,351.02"/>
    </edge>
    <edge id=":cluster_105012331_5312909754_5312909756_8484445227_8484452927_0" function="internal">