<?xml version="1.0" encoding="UTF-8"?>
<routes xmlns:xsi="http://www.w3.org/2001/XMLSchema-instance" xsi:noNamespaceSchemaLocation="http://sumo.dlr.de/xsd/routes_file.xsd">

<vType id="noVar" speedFactor="1.0" speedDev="0.0"/>
<route id="route_Fifth-RHS-Ross.15" edges="Fifth-RHS-Ross Fifth-RHS-Ross-2 Fifth-Ross-Grant Fifth-Ross-Grant-2 Grant-Fifth-Forbes Forbes-Grant-WilliamPenn Forbes-WilliamPenn-Smithfield" />
<vehicle type="noVar" depart="22" id="Fifth-RHS-Ross.15" route="route_Fifth-RHS-Ross.15" />
<route id="route_Fifth-Smithfield-WilliamPenn.9" edges="Fifth-Smithfield-WilliamPenn Fifth-Smithfield-WilliamPenn-2 Fifth-WilliamPenn-Grant Fifth-Grant-Ross Fifth-Grant-Ross-2 Fifth-Ross-RHS" />
<vehicle type="noVar" depart="29" id="Fifth-Smithfield-WilliamPenn.9" route="route_Fifth-Smithfield-WilliamPenn.9" />
<route id="route_Ross-Fourth-Forbes.45" edges="Ross-Fourth-Forbes Ross-Fourth-Forbes-2 Ross-Forbes-Fifth Fifth-Ross-RHS" />
<vehicle type="noVar" depart="31" id="Ross-Fourth-Forbes.45" route="route_Ross-Fourth-Forbes.45" />
<route id="route_Forbes-RHS-Ross.31" edges="Forbes-RHS-Ross Forbes-RHS-Ross-2 Ross-Forbes-Fourth" />
<vehicle type="noVar" depart="43" id="Forbes-RHS-Ross.31" route="route_Forbes-RHS-Ross.31" />
<route id="route_Fifth-RHS-Ross.5" edges="Fifth-RHS-Ross Fifth-RHS-Ross-2 Fifth-Ross-Grant Fifth-Ross-Grant-2 Grant-Fifth-Oliver Grant-Oliver-Sixth Grant-Sixth-Seventh" />
<vehicle type="noVar" depart="45" id="Fifth-RHS-Ross.5" route="route_Fifth-RHS-Ross.5" />
<route id="route_WilliamPenn-Seventh-Sixth.6" edges="WilliamPenn-Seventh-Sixth WilliamPenn-Seventh-Sixth-2 WilliamPenn-Sixth-Oliver Oliver-WilliamPenn-Grant Grant-Oliver-Sixth Grant-Sixth-Seventh" />
<vehicle type="noVar" depart="49" id="WilliamPenn-Seventh-Sixth.6" route="route_WilliamPenn-Seventh-Sixth.6" />
<route id="route_WilliamPenn-Seventh-Sixth.5" edges="WilliamPenn-Seventh-Sixth WilliamPenn-Seventh-Sixth-2 Sixth-WilliamPenn-Grant Grant-Sixth-Seventh" />
<vehicle type="noVar" depart="61" id="WilliamPenn-Seventh-Sixth.5" route="route_WilliamPenn-Seventh-Sixth.5" />
<route id="route_Ross-Fourth-Forbes.38" edges="Ross-Fourth-Forbes Ross-Fourth-Forbes-2 Ross-Forbes-Fifth Fifth-Ross-RHS" />
<vehicle type="noVar" depart="73" id="Ross-Fourth-Forbes.38" route="route_Ross-Fourth-Forbes.38" />
<route id="route_Oliver-Smithfield-WilliamPenn.13" edges="Oliver-Smithfield-WilliamPenn Oliver-Smithfield-WilliamPenn-2 Oliver-WilliamPenn-Grant Grant-Oliver-Sixth Grant-Sixth-Seventh" />
<vehicle type="noVar" depart="75" id="Oliver-Smithfield-WilliamPenn.13" route="route_Oliver-Smithfield-WilliamPenn.13" />
<route id="route_Grant-Fourth-Forbes.15" edges="Grant-Fourth-Forbes Grant-Fourth-Forbes-2 Grant-Fourth-Forbes-3 Grant-Forbes-Fifth Grant-Fifth-Oliver Grant-Oliver-Sixth Grant-Sixth-Seventh" />
<vehicle type="noVar" depart="87" id="Grant-Fourth-Forbes.15" route="route_Grant-Fourth-Forbes.15" />
<route id="route_Ross-Seventh-Sixth.62" edges="Ross-Seventh-Sixth Ross-Seventh-Sixth-2 Ross-Sixth-Fifth Fifth-Ross-Grant Fifth-Ross-Grant-2 Fifth-Grant-WilliamPenn WilliamPenn-Fifth-Forbes WilliamPenn-Forbes-Fourth" />
<vehicle type="noVar" depart="95" id="Ross-Seventh-Sixth.62" route="route_Ross-Seventh-Sixth.62" />
<route id="route_Grant-Seventh-Sixth.39" edges="Grant-Seventh-Sixth Grant-Seventh-Sixth-2 Grant-Sixth-Oliver Grant-Oliver-Fifth Grant-Fifth-Forbes Grant-Forbes-Fourth" />
<vehicle type="noVar" depart="101" id="Grant-Seventh-Sixth.39" route="route_Grant-Seventh-Sixth.39" />
<route id="route_Sixth-RHS-Ross.15" edges="Sixth-RHS-Ross Sixth-RHS-Ross-2 Ross-Sixth-Seventh" />
<vehicle type="noVar" depart="101" id="Sixth-RHS-Ross.15" route="route_Sixth-RHS-Ross.15" />
<route id="route_Ross-Seventh-Sixth.27" edges="Ross-Seventh-Sixth Ross-Seventh-Sixth-2 Sixth-Ross-Grant Sixth-Grant-WilliamPenn Sixth-WilliamPenn-Smithfield" />
<vehicle type="noVar" depart="117" id="Ross-Seventh-Sixth.27" route="route_Ross-Seventh-Sixth.27" />
<route id="route_Grant-Fourth-Forbes.45" edges="Grant-Fourth-Forbes Grant-Fourth-Forbes-2 Grant-Fourth-Forbes-3 Grant-Forbes-Fifth Grant-Fifth-Oliver Grant-Oliver-Sixth Grant-Sixth-Seventh" />
<vehicle type="noVar" depart="130" id="Grant-Fourth-Forbes.45" route="route_Grant-Fourth-Forbes.45" />
<route id="route_Fifth-RHS-Ross.39" edges="Fifth-RHS-Ross Fifth-RHS-Ross-2 Fifth-Ross-Grant Fifth-Ross-Grant-2 Grant-Fifth-Forbes Grant-Forbes-Fourth" />
<vehicle type="noVar" depart="166" id="Fifth-RHS-Ross.39" route="route_Fifth-RHS-Ross.39" />
<route id="route_Ross-Seventh-Sixth.47" edges="Ross-Seventh-Sixth Ross-Seventh-Sixth-2 Ross-Sixth-Fifth Fifth-Ross-RHS" />
<vehicle type="noVar" depart="176" id="Ross-Seventh-Sixth.47" route="route_Ross-Seventh-Sixth.47" />
<route id="route_Sixth-RHS-Ross.46" edges="Sixth-RHS-Ross Sixth-RHS-Ross-2 Sixth-Ross-Grant Sixth-Grant-WilliamPenn Sixth-WilliamPenn-Smithfield" />
<vehicle type="noVar" depart="180" id="Sixth-RHS-Ross.46" route="route_Sixth-RHS-Ross.46" />
<route id="route_Ross-Fourth-Forbes.42" edges="Ross-Fourth-Forbes Ross-Fourth-Forbes-2 Ross-Forbes-Fifth Fifth-Ross-RHS" />
<vehicle type="noVar" depart="184" id="Ross-Fourth-Forbes.42" route="route_Ross-Fourth-Forbes.42" />
<route id="route_Forbes-RHS-Ross.34" edges="Forbes-RHS-Ross Forbes-RHS-Ross-2 Ross-Forbes-Fourth" />
<vehicle type="noVar" depart="199" id="Forbes-RHS-Ross.34" route="route_Forbes-RHS-Ross.34" />
<route id="route_Sixth-Smithfield-WilliamPenn.2" edges="Sixth-Smithfield-WilliamPenn Sixth-Smithfield-WilliamPenn-2 Sixth-WilliamPenn-Grant Sixth-Grant-Ross Ross-Sixth-Seventh" />
<vehicle type="noVar" depart="204" id="Sixth-Smithfield-WilliamPenn.2" route="route_Sixth-Smithfield-WilliamPenn.2" />
<route id="route_Oliver-Smithfield-WilliamPenn.31" edges="Oliver-Smithfield-WilliamPenn Oliver-Smithfield-WilliamPenn-2 Oliver-WilliamPenn-Grant Grant-Oliver-Sixth Grant-Sixth-Seventh" />
<vehicle type="noVar" depart="211" id="Oliver-Smithfield-WilliamPenn.31" route="route_Oliver-Smithfield-WilliamPenn.31" />
<route id="route_Ross-Seventh-Sixth.57" edges="Ross-Seventh-Sixth Ross-Seventh-Sixth-2 Sixth-Ross-RHS" />
<vehicle type="noVar" depart="215" id="Ross-Seventh-Sixth.57" route="route_Ross-Seventh-Sixth.57" />
<route id="route_Sixth-Smithfield-WilliamPenn.4" edges="Sixth-Smithfield-WilliamPenn Sixth-Smithfield-WilliamPenn-2 Sixth-WilliamPenn-Grant Sixth-Grant-Ross Sixth-Ross-RHS" />
<vehicle type="noVar" depart="218" id="Sixth-Smithfield-WilliamPenn.4" route="route_Sixth-Smithfield-WilliamPenn.4" />
<route id="route_Oliver-Smithfield-WilliamPenn.9" edges="Oliver-Smithfield-WilliamPenn Oliver-Smithfield-WilliamPenn-2 Oliver-WilliamPenn-Grant Grant-Oliver-Sixth Sixth-Grant-Ross Ross-Sixth-Fifth Fifth-Ross-Grant Fifth-Ross-Grant-2 Fifth-Grant-WilliamPenn Fifth-WilliamPenn-Smithfield" />
<vehicle type="noVar" depart="230" id="Oliver-Smithfield-WilliamPenn.9" route="route_Oliver-Smithfield-WilliamPenn.9" />
<route id="route_Fifth-RHS-Ross.17" edges="Fifth-RHS-Ross Fifth-RHS-Ross-2 Fifth-Ross-Grant Fifth-Ross-Grant-2 Fifth-Grant-WilliamPenn Fifth-WilliamPenn-Smithfield" />
<vehicle type="noVar" depart="231" id="Fifth-RHS-Ross.17" route="route_Fifth-RHS-Ross.17" />
<route id="route_Fifth-RHS-Ross.6" edges="Fifth-RHS-Ross Fifth-RHS-Ross-2 Ross-Fifth-Forbes Ross-Forbes-Fourth" />
<vehicle type="noVar" depart="235" id="Fifth-RHS-Ross.6" route="route_Fifth-RHS-Ross.6" />
<route id="route_Sixth-RHS-Ross.41" edges="Sixth-RHS-Ross Sixth-RHS-Ross-2 Sixth-Ross-Grant Grant-Sixth-Oliver Grant-Oliver-Fifth Grant-Fifth-Forbes Grant-Forbes-Fourth" />
<vehicle type="noVar" depart="243" id="Sixth-RHS-Ross.41" route="route_Sixth-RHS-Ross.41" />
<route id="route_Forbes-RHS-Ross.5" edges="Forbes-RHS-Ross Forbes-RHS-Ross-2 Forbes-Ross-Grant Forbes-Grant-WilliamPenn WilliamPenn-Forbes-Fourth" />
<vehicle type="noVar" depart="244" id="Forbes-RHS-Ross.5" route="route_Forbes-RHS-Ross.5" />
<route id="route_Grant-Fourth-Forbes.2" edges="Grant-Fourth-Forbes Grant-Fourth-Forbes-2 Grant-Fourth-Forbes-3 Grant-Forbes-Fifth Grant-Fifth-Oliver Grant-Oliver-Sixth Grant-Sixth-Seventh" />
<vehicle type="noVar" depart="254" id="Grant-Fourth-Forbes.2" route="route_Grant-Fourth-Forbes.2" />
<route id="route_Sixth-RHS-Ross.47" edges="Sixth-RHS-Ross Sixth-RHS-Ross-2 Sixth-Ross-Grant Sixth-Grant-WilliamPenn Sixth-WilliamPenn-Smithfield" />
<vehicle type="noVar" depart="256" id="Sixth-RHS-Ross.47" route="route_Sixth-RHS-Ross.47" />
<route id="route_Ross-Fourth-Forbes.48" edges="Ross-Fourth-Forbes Ross-Fourth-Forbes-2 Forbes-Ross-RHS" />
<vehicle type="noVar" depart="259" id="Ross-Fourth-Forbes.48" route="route_Ross-Fourth-Forbes.48" />
<route id="route_Sixth-Smithfield-WilliamPenn.28" edges="Sixth-Smithfield-WilliamPenn Sixth-Smithfield-WilliamPenn-2 Sixth-WilliamPenn-Grant Grant-Sixth-Oliver Grant-Oliver-Fifth Fifth-Grant-WilliamPenn Fifth-WilliamPenn-Smithfield" />
<vehicle type="noVar" depart="266" id="Sixth-Smithfield-WilliamPenn.28" route="route_Sixth-Smithfield-WilliamPenn.28" />
<route id="route_WilliamPenn-Seventh-Sixth.17" edges="WilliamPenn-Seventh-Sixth WilliamPenn-Seventh-Sixth-2 Sixth-WilliamPenn-Smithfield" />
<vehicle type="noVar" depart="267" id="WilliamPenn-Seventh-Sixth.17" route="route_WilliamPenn-Seventh-Sixth.17" />
<route id="route_Sixth-Smithfield-WilliamPenn.9" edges="Sixth-Smithfield-WilliamPenn Sixth-Smithfield-WilliamPenn-2 Sixth-WilliamPenn-Grant Sixth-Grant-Ross Sixth-Ross-RHS" />
<vehicle type="noVar" depart="278" id="Sixth-Smithfield-WilliamPenn.9" route="route_Sixth-Smithfield-WilliamPenn.9" />
<route id="route_Fifth-RHS-Ross.18" edges="Fifth-RHS-Ross Fifth-RHS-Ross-2 Ross-Fifth-Forbes Ross-Forbes-Fourth" />
<vehicle type="noVar" depart="280" id="Fifth-RHS-Ross.18" route="route_Fifth-RHS-Ross.18" />
<route id="route_Ross-Seventh-Sixth.6" edges="Ross-Seventh-Sixth Ross-Seventh-Sixth-2 Ross-Sixth-Fifth Ross-Fifth-Forbes Ross-Forbes-Fourth" />
<vehicle type="noVar" depart="284" id="Ross-Seventh-Sixth.6" route="route_Ross-Seventh-Sixth.6" />
<route id="route_Oliver-Smithfield-WilliamPenn.17" edges="Oliver-Smithfield-WilliamPenn Oliver-Smithfield-WilliamPenn-2 WilliamPenn-Oliver-Fifth WilliamPenn-Fifth-Forbes WilliamPenn-Forbes-Fourth" />
<vehicle type="noVar" depart="290" id="Oliver-Smithfield-WilliamPenn.17" route="route_Oliver-Smithfield-WilliamPenn.17" />
<route id="route_Grant-Seventh-Sixth.43" edges="Grant-Seventh-Sixth Grant-Seventh-Sixth-2 Grant-Sixth-Oliver Grant-Oliver-Fifth Grant-Fifth-Forbes Grant-Forbes-Fourth" />
<vehicle type="noVar" depart="296" id="Grant-Seventh-Sixth.43" route="route_Grant-Seventh-Sixth.43" />
<route id="route_Grant-Fourth-Forbes.30" edges="Grant-Fourth-Forbes Grant-Fourth-Forbes-2 Grant-Fourth-Forbes-3 Grant-Forbes-Fifth Grant-Fifth-Oliver Grant-Oliver-Sixth Grant-Sixth-Seventh" />
<vehicle type="noVar" depart="305" id="Grant-Fourth-Forbes.30" route="route_Grant-Fourth-Forbes.30" />
<route id="route_Grant-Seventh-Sixth.34" edges="Grant-Seventh-Sixth Grant-Seventh-Sixth-2 Grant-Sixth-Oliver Grant-Oliver-Fifth Grant-Fifth-Forbes Grant-Forbes-Fourth" />
<vehicle type="noVar" depart="320" id="Grant-Seventh-Sixth.34" route="route_Grant-Seventh-Sixth.34" />
<route id="route_Oliver-Smithfield-WilliamPenn.23" edges="Oliver-Smithfield-WilliamPenn Oliver-Smithfield-WilliamPenn-2 Oliver-WilliamPenn-Grant Grant-Oliver-Sixth Grant-Sixth-Seventh" />
<vehicle type="noVar" depart="328" id="Oliver-Smithfield-WilliamPenn.23" route="route_Oliver-Smithfield-WilliamPenn.23" />
<route id="route_Ross-Seventh-Sixth.40" edges="Ross-Seventh-Sixth Ross-Seventh-Sixth-2 Sixth-Ross-RHS" />
<vehicle type="noVar" depart="331" id="Ross-Seventh-Sixth.40" route="route_Ross-Seventh-Sixth.40" />
<route id="route_Sixth-RHS-Ross.17" edges="Sixth-RHS-Ross Sixth-RHS-Ross-2 Sixth-Ross-Grant Sixth-Grant-WilliamPenn WilliamPenn-Sixth-Oliver WilliamPenn-Oliver-Fifth WilliamPenn-Fifth-Forbes WilliamPenn-Forbes-Fourth" />
<vehicle type="noVar" depart="335" id="Sixth-RHS-Ross.17" route="route_Sixth-RHS-Ross.17" />
<route id="route_Forbes-RHS-Ross.21" edges="Forbes-RHS-Ross Forbes-RHS-Ross-2 Ross-Forbes-Fourth" />
<vehicle type="noVar" depart="341" id="Forbes-RHS-Ross.21" route="route_Forbes-RHS-Ross.21" />
<route id="route_Forbes-RHS-Ross.25" edges="Forbes-RHS-Ross Forbes-RHS-Ross-2 Forbes-Ross-Grant Grant-Forbes-Fourth" />
<vehicle type="noVar" depart="346" id="Forbes-RHS-Ross.25" route="route_Forbes-RHS-Ross.25" />
<route id="route_Sixth-RHS-Ross.32" edges="Sixth-RHS-Ross Sixth-RHS-Ross-2 Sixth-Ross-Grant Sixth-Grant-WilliamPenn Sixth-WilliamPenn-Smithfield" />
<vehicle type="noVar" depart="348" id="Sixth-RHS-Ross.32" route="route_Sixth-RHS-Ross.32" />
<route id="route_Grant-Seventh-Sixth.0" edges="Grant-Seventh-Sixth Grant-Seventh-Sixth-2 Grant-Sixth-Oliver Grant-Oliver-Fifth Grant-Fifth-Forbes Forbes-Grant-WilliamPenn Forbes-WilliamPenn-Smithfield" />
<vehicle type="noVar" depart="357" id="Grant-Seventh-Sixth.0" route="route_Grant-Seventh-Sixth.0" />
<route id="route_Grant-Fourth-Forbes.34" edges="Grant-Fourth-Forbes Grant-Fourth-Forbes-2 Grant-Fourth-Forbes-3 Forbes-Grant-Ross Forbes-Ross-RHS" />
<vehicle type="noVar" depart="358" id="Grant-Fourth-Forbes.34" route="route_Grant-Fourth-Forbes.34" />
<route id="route_Sixth-Smithfield-WilliamPenn.42" edges="Sixth-Smithfield-WilliamPenn Sixth-Smithfield-WilliamPenn-2 WilliamPenn-Sixth-Oliver WilliamPenn-Oliver-Fifth WilliamPenn-Fifth-Forbes Forbes-WilliamPenn-Smithfield" />
<vehicle type="noVar" depart="360" id="Sixth-Smithfield-WilliamPenn.42" route="route_Sixth-Smithfield-WilliamPenn.42" />
<route id="route_Ross-Seventh-Sixth.26" edges="Ross-Seventh-Sixth Ross-Seventh-Sixth-2 Ross-Sixth-Fifth Fifth-Ross-RHS" />
<vehicle type="noVar" depart="367" id="Ross-Seventh-Sixth.26" route="route_Ross-Seventh-Sixth.26" />
<route id="route_Ross-Fourth-Forbes.11" edges="Ross-Fourth-Forbes Ross-Fourth-Forbes-2 Forbes-Ross-RHS" />
<vehicle type="noVar" depart="378" id="Ross-Fourth-Forbes.11" route="route_Ross-Fourth-Forbes.11" />
<route id="route_Grant-Seventh-Sixth.56" edges="Grant-Seventh-Sixth Grant-Seventh-Sixth-2 Sixth-Grant-Ross Sixth-Ross-RHS" />
<vehicle type="noVar" depart="381" id="Grant-Seventh-Sixth.56" route="route_Grant-Seventh-Sixth.56" />
<route id="route_Grant-Fifth-Oliver.2" edges="Grant-Fifth-Oliver Grant-Oliver-Sixth Sixth-Grant-WilliamPenn WilliamPenn-Sixth-Oliver WilliamPenn-Oliver-Fifth Fifth-WilliamPenn-Grant Fifth-Grant-Ross Fifth-Grant-Ross-2 Fifth-Ross-RHS" />
<vehicle type="noVar" depart="382" id="Grant-Fifth-Oliver.2" route="route_Grant-Fifth-Oliver.2" />
<route id="route_Oliver-Smithfield-WilliamPenn.2" edges="Oliver-Smithfield-WilliamPenn Oliver-Smithfield-WilliamPenn-2 Oliver-WilliamPenn-Grant Grant-Oliver-Sixth Grant-Sixth-Seventh" />
<vehicle type="noVar" depart="400" id="Oliver-Smithfield-WilliamPenn.2" route="route_Oliver-Smithfield-WilliamPenn.2" />
<route id="route_Ross-Seventh-Sixth.21" edges="Ross-Seventh-Sixth Ross-Seventh-Sixth-2 Sixth-Ross-RHS" />
<vehicle type="noVar" depart="404" id="Ross-Seventh-Sixth.21" route="route_Ross-Seventh-Sixth.21" />
<route id="route_Forbes-RHS-Ross.30" edges="Forbes-RHS-Ross Forbes-RHS-Ross-2 Forbes-Ross-Grant Forbes-Grant-WilliamPenn Forbes-WilliamPenn-Smithfield" />
<vehicle type="noVar" depart="404" id="Forbes-RHS-Ross.30" route="route_Forbes-RHS-Ross.30" />
<route id="route_Ross-Fourth-Forbes.13" edges="Ross-Fourth-Forbes Ross-Fourth-Forbes-2 Forbes-Ross-RHS" />
<vehicle type="noVar" depart="404" id="Ross-Fourth-Forbes.13" route="route_Ross-Fourth-Forbes.13" />
<route id="route_Ross-Fourth-Forbes.31" edges="Ross-Fourth-Forbes Ross-Fourth-Forbes-2 Ross-Forbes-Fifth Fifth-Ross-RHS" />
<vehicle type="noVar" depart="409" id="Ross-Fourth-Forbes.31" route="route_Ross-Fourth-Forbes.31" />
<route id="route_Oliver-Smithfield-WilliamPenn.24" edges="Oliver-Smithfield-WilliamPenn Oliver-Smithfield-WilliamPenn-2 Oliver-WilliamPenn-Grant Grant-Oliver-Sixth Grant-Sixth-Seventh" />
<vehicle type="noVar" depart="418" id="Oliver-Smithfield-WilliamPenn.24" route="route_Oliver-Smithfield-WilliamPenn.24" />
<route id="route_Oliver-Smithfield-WilliamPenn.11" edges="Oliver-Smithfield-WilliamPenn Oliver-Smithfield-WilliamPenn-2 WilliamPenn-Oliver-Fifth WilliamPenn-Fifth-Forbes WilliamPenn-Forbes-Fourth" />
<vehicle type="noVar" depart="424" id="Oliver-Smithfield-WilliamPenn.11" route="route_Oliver-Smithfield-WilliamPenn.11" />
<route id="route_Grant-Seventh-Sixth.33" edges="Grant-Seventh-Sixth Grant-Seventh-Sixth-2 Sixth-Grant-Ross Sixth-Ross-RHS" />
<vehicle type="noVar" depart="432" id="Grant-Seventh-Sixth.33" route="route_Grant-Seventh-Sixth.33" />
<route id="route_WilliamPenn-Seventh-Sixth.27" edges="WilliamPenn-Seventh-Sixth WilliamPenn-Seventh-Sixth-2 Sixth-WilliamPenn-Smithfield" />
<vehicle type="noVar" depart="436" id="WilliamPenn-Seventh-Sixth.27" route="route_WilliamPenn-Seventh-Sixth.27" />
<route id="route_Ross-Seventh-Sixth.36" edges="Ross-Seventh-Sixth Ross-Seventh-Sixth-2 Sixth-Ross-Grant Grant-Sixth-Oliver Grant-Oliver-Fifth Fifth-Grant-Ross Fifth-Grant-Ross-2 Fifth-Ross-RHS" />
<vehicle type="noVar" depart="436" id="Ross-Seventh-Sixth.36" route="route_Ross-Seventh-Sixth.36" />
<route id="route_WilliamPenn-Seventh-Sixth.0" edges="WilliamPenn-Seventh-Sixth WilliamPenn-Seventh-Sixth-2 WilliamPenn-Sixth-Oliver WilliamPenn-Oliver-Fifth Fifth-WilliamPenn-Smithfield" />
<vehicle type="noVar" depart="444" id="WilliamPenn-Seventh-Sixth.0" route="route_WilliamPenn-Seventh-Sixth.0" />
<route id="route_Fifth-RHS-Ross.12" edges="Fifth-RHS-Ross Fifth-RHS-Ross-2 Fifth-Ross-Grant Fifth-Ross-Grant-2 Fifth-Grant-WilliamPenn WilliamPenn-Fifth-Forbes WilliamPenn-Forbes-Fourth" />
<vehicle type="noVar" depart="445" id="Fifth-RHS-Ross.12" route="route_Fifth-RHS-Ross.12" />
<route id="route_Ross-Fourth-Forbes.7" edges="Ross-Fourth-Forbes Ross-Fourth-Forbes-2 Forbes-Ross-Grant Forbes-Grant-WilliamPenn Forbes-WilliamPenn-Smithfield" />
<vehicle type="noVar" depart="447" id="Ross-Fourth-Forbes.7" route="route_Ross-Fourth-Forbes.7" />
<route id="route_Grant-Fourth-Forbes.44" edges="Grant-Fourth-Forbes Grant-Fourth-Forbes-2 Grant-Fourth-Forbes-3 Forbes-Grant-Ross Forbes-Ross-RHS" />
<vehicle type="noVar" depart="459" id="Grant-Fourth-Forbes.44" route="route_Grant-Fourth-Forbes.44" />
<route id="route_Ross-Seventh-Sixth.23" edges="Ross-Seventh-Sixth Ross-Seventh-Sixth-2 Sixth-Ross-RHS" />
<vehicle type="noVar" depart="460" id="Ross-Seventh-Sixth.23" route="route_Ross-Seventh-Sixth.23" />
<route id="route_Sixth-RHS-Ross.10" edges="Sixth-RHS-Ross Sixth-RHS-Ross-2 Sixth-Ross-Grant Grant-Sixth-Seventh" />
<vehicle type="noVar" depart="475" id="Sixth-RHS-Ross.10" route="route_Sixth-RHS-Ross.10" />
<route id="route_Ross-Fourth-Forbes.24" edges="Ross-Fourth-Forbes Ross-Fourth-Forbes-2 Forbes-Ross-RHS" />
<vehicle type="noVar" depart="478" id="Ross-Fourth-Forbes.24" route="route_Ross-Fourth-Forbes.24" />
<route id="route_Fifth-RHS-Ross.2" edges="Fifth-RHS-Ross Fifth-RHS-Ross-2 Fifth-Ross-Grant Fifth-Ross-Grant-2 Grant-Fifth-Oliver Grant-Oliver-Sixth Sixth-Grant-Ross Sixth-Ross-RHS" />
<vehicle type="noVar" depart="485" id="Fifth-RHS-Ross.2" route="route_Fifth-RHS-Ross.2" />
<route id="route_Grant-Fourth-Forbes.25" edges="Grant-Fourth-Forbes Grant-Fourth-Forbes-2 Grant-Fourth-Forbes-3 Forbes-Grant-Ross Forbes-Ross-RHS" />
<vehicle type="noVar" depart="488" id="Grant-Fourth-Forbes.25" route="route_Grant-Fourth-Forbes.25" />
<route id="route_Sixth-Smithfield-WilliamPenn.33" edges="Sixth-Smithfield-WilliamPenn Sixth-Smithfield-WilliamPenn-2 Sixth-WilliamPenn-Grant Grant-Sixth-Oliver Grant-Oliver-Fifth Grant-Fifth-Forbes Grant-Forbes-Fourth" />
<vehicle type="noVar" depart="504" id="Sixth-Smithfield-WilliamPenn.33" route="route_Sixth-Smithfield-WilliamPenn.33" />
<route id="route_Grant-Fourth-Forbes.47" edges="Grant-Fourth-Forbes Grant-Fourth-Forbes-2 Grant-Fourth-Forbes-3 Forbes-Grant-WilliamPenn WilliamPenn-Forbes-Fourth" />
<vehicle type="noVar" depart="505" id="Grant-Fourth-Forbes.47" route="route_Grant-Fourth-Forbes.47" />
<route id="route_Sixth-Smithfield-WilliamPenn.35" edges="Sixth-Smithfield-WilliamPenn Sixth-Smithfield-WilliamPenn-2 Sixth-WilliamPenn-Grant Sixth-Grant-Ross Sixth-Ross-RHS" />
<vehicle type="noVar" depart="510" id="Sixth-Smithfield-WilliamPenn.35" route="route_Sixth-Smithfield-WilliamPenn.35" />
<route id="route_Sixth-RHS-Ross.22" edges="Sixth-RHS-Ross Sixth-RHS-Ross-2 Sixth-Ross-Grant Grant-Sixth-Oliver Grant-Oliver-Fifth Grant-Fifth-Forbes Grant-Forbes-Fourth" />
<vehicle type="noVar" depart="510" id="Sixth-RHS-Ross.22" route="route_Sixth-RHS-Ross.22" />
<route id="route_WilliamPenn-Seventh-Sixth.15" edges="WilliamPenn-Seventh-Sixth WilliamPenn-Seventh-Sixth-2 WilliamPenn-Sixth-Oliver WilliamPenn-Oliver-Fifth Fifth-WilliamPenn-Smithfield" />
<vehicle type="noVar" depart="518" id="WilliamPenn-Seventh-Sixth.15" route="route_WilliamPenn-Seventh-Sixth.15" />
<route id="route_Forbes-RHS-Ross.24" edges="Forbes-RHS-Ross Forbes-RHS-Ross-2 Forbes-Ross-Grant Forbes-Grant-WilliamPenn Forbes-WilliamPenn-Smithfield" />
<vehicle type="noVar" depart="522" id="Forbes-RHS-Ross.24" route="route_Forbes-RHS-Ross.24" />
<route id="route_Grant-Fourth-Forbes.6" edges="Grant-Fourth-Forbes Grant-Fourth-Forbes-2 Grant-Fourth-Forbes-3 Grant-Forbes-Fifth Grant-Fifth-Oliver Grant-Oliver-Sixth Grant-Sixth-Seventh" />
<vehicle type="noVar" depart="525" id="Grant-Fourth-Forbes.6" route="route_Grant-Fourth-Forbes.6" />
<route id="route_WilliamPenn-Seventh-Sixth.23" edges="WilliamPenn-Seventh-Sixth WilliamPenn-Seventh-Sixth-2 Sixth-WilliamPenn-Smithfield" />
<vehicle type="noVar" depart="533" id="WilliamPenn-Seventh-Sixth.23" route="route_WilliamPenn-Seventh-Sixth.23" />
<route id="route_Sixth-RHS-Ross.16" edges="Sixth-RHS-Ross Sixth-RHS-Ross-2 Ross-Sixth-Seventh" />
<vehicle type="noVar" depart="540" id="Sixth-RHS-Ross.16" route="route_Sixth-RHS-Ross.16" />
<route id="route_Sixth-RHS-Ross.26" edges="Sixth-RHS-Ross Sixth-RHS-Ross-2 Sixth-Ross-Grant Sixth-Grant-WilliamPenn WilliamPenn-Sixth-Oliver Oliver-WilliamPenn-Smithfield" />
<vehicle type="noVar" depart="540" id="Sixth-RHS-Ross.26" route="route_Sixth-RHS-Ross.26" />
<route id="route_Grant-Fourth-Forbes.24" edges="Grant-Fourth-Forbes Grant-Fourth-Forbes-2 Grant-Fourth-Forbes-3 Grant-Forbes-Fifth Grant-Fifth-Oliver Grant-Oliver-Sixth Grant-Sixth-Seventh" />
<vehicle type="noVar" depart="551" id="Grant-Fourth-Forbes.24" route="route_Grant-Fourth-Forbes.24" />
<route id="route_Ross-Seventh-Sixth.44" edges="Ross-Seventh-Sixth Ross-Seventh-Sixth-2 Ross-Sixth-Fifth Fifth-Ross-RHS" />
<vehicle type="noVar" depart="561" id="Ross-Seventh-Sixth.44" route="route_Ross-Seventh-Sixth.44" />
<route id="route_Grant-Seventh-Sixth.7" edges="Grant-Seventh-Sixth Grant-Seventh-Sixth-2 Sixth-Grant-Ross Sixth-Ross-RHS" />
<vehicle type="noVar" depart="564" id="Grant-Seventh-Sixth.7" route="route_Grant-Seventh-Sixth.7" />
<route id="route_Ross-Seventh-Sixth.22" edges="Ross-Seventh-Sixth Ross-Seventh-Sixth-2 Ross-Sixth-Fifth Ross-Fifth-Forbes Ross-Forbes-Fourth" />
<vehicle type="noVar" depart="567" id="Ross-Seventh-Sixth.22" route="route_Ross-Seventh-Sixth.22" />
<route id="route_Ross-Fourth-Forbes.41" edges="Ross-Fourth-Forbes Ross-Fourth-Forbes-2 Ross-Forbes-Fifth Ross-Fifth-Sixth Ross-Sixth-Seventh" />
<vehicle type="noVar" depart="583" id="Ross-Fourth-Forbes.41" route="route_Ross-Fourth-Forbes.41" />
<route id="route_Sixth-RHS-Ross.29" edges="Sixth-RHS-Ross Sixth-RHS-Ross-2 Ross-Sixth-Seventh" />
<vehicle type="noVar" depart="585" id="Sixth-RHS-Ross.29" route="route_Sixth-RHS-Ross.29" />
<route id="route_Ross-Fourth-Forbes.12" edges="Ross-Fourth-Forbes Ross-Fourth-Forbes-2 Forbes-Ross-Grant Grant-Forbes-Fourth" />
<vehicle type="noVar" depart="593" id="Ross-Fourth-Forbes.12" route="route_Ross-Fourth-Forbes.12" />
<route id="route_Fifth-RHS-Ross.38" edges="Fifth-RHS-Ross Fifth-RHS-Ross-2 Fifth-Ross-Grant Fifth-Ross-Grant-2 Fifth-Grant-WilliamPenn Fifth-WilliamPenn-Smithfield" />
<vehicle type="noVar" depart="618" id="Fifth-RHS-Ross.38" route="route_Fifth-RHS-Ross.38" />
<route id="route_Forbes-RHS-Ross.46" edges="Forbes-RHS-Ross Forbes-RHS-Ross-2 Forbes-Ross-Grant Forbes-Grant-WilliamPenn WilliamPenn-Forbes-Fourth" />
<vehicle type="noVar" depart="633" id="Forbes-RHS-Ross.46" route="route_Forbes-RHS-Ross.46" />
<route id="route_Sixth-Smithfield-WilliamPenn.1" edges="Sixth-Smithfield-WilliamPenn Sixth-Smithfield-WilliamPenn-2 Sixth-WilliamPenn-Grant Sixth-Grant-Ross Ross-Sixth-Seventh" />
<vehicle type="noVar" depart="637" id="Sixth-Smithfield-WilliamPenn.1" route="route_Sixth-Smithfield-WilliamPenn.1" />
<route id="route_Forbes-RHS-Ross.2" edges="Forbes-RHS-Ross Forbes-RHS-Ross-2 Forbes-Ross-Grant Forbes-Grant-WilliamPenn Forbes-WilliamPenn-Smithfield" />
<vehicle type="noVar" depart="647" id="Forbes-RHS-Ross.2" route="route_Forbes-RHS-Ross.2" />
<route id="route_Forbes-RHS-Ross.14" edges="Forbes-RHS-Ross Forbes-RHS-Ross-2 Ross-Forbes-Fourth" />
<vehicle type="noVar" depart="650" id="Forbes-RHS-Ross.14" route="route_Forbes-RHS-Ross.14" />
<route id="route_WilliamPenn-Seventh-Sixth.16" edges="WilliamPenn-Seventh-Sixth WilliamPenn-Seventh-Sixth-2 WilliamPenn-Sixth-Oliver WilliamPenn-Oliver-Fifth WilliamPenn-Fifth-Forbes WilliamPenn-Forbes-Fourth" />
<vehicle type="noVar" depart="657" id="WilliamPenn-Seventh-Sixth.16" route="route_WilliamPenn-Seventh-Sixth.16" />
<route id="route_WilliamPenn-Seventh-Sixth.4" edges="WilliamPenn-Seventh-Sixth WilliamPenn-Seventh-Sixth-2 WilliamPenn-Sixth-Oliver WilliamPenn-Oliver-Fifth WilliamPenn-Fifth-Forbes WilliamPenn-Forbes-Fourth" />
<vehicle type="noVar" depart="661" id="WilliamPenn-Seventh-Sixth.4" route="route_WilliamPenn-Seventh-Sixth.4" />
<route id="route_Sixth-RHS-Ross.28" edges="Sixth-RHS-Ross Sixth-RHS-Ross-2 Sixth-Ross-Grant Grant-Sixth-Seventh" />
<vehicle type="noVar" depart="662" id="Sixth-RHS-Ross.28" route="route_Sixth-RHS-Ross.28" />
<route id="route_Grant-Fourth-Forbes.19" edges="Grant-Fourth-Forbes Grant-Fourth-Forbes-2 Grant-Fourth-Forbes-3 Forbes-Grant-WilliamPenn Forbes-WilliamPenn-Smithfield" />
<vehicle type="noVar" depart="671" id="Grant-Fourth-Forbes.19" route="route_Grant-Fourth-Forbes.19" />
<route id="route_Ross-Fourth-Forbes.6" edges="Ross-Fourth-Forbes Ross-Fourth-Forbes-2 Ross-Forbes-Fifth Ross-Fifth-Sixth Sixth-Ross-RHS" />
<vehicle type="noVar" depart="675" id="Ross-Fourth-Forbes.6" route="route_Ross-Fourth-Forbes.6" />
<route id="route_Ross-Seventh-Sixth.25" edges="Ross-Seventh-Sixth Ross-Seventh-Sixth-2 Ross-Sixth-Fifth Fifth-Ross-RHS" />
<vehicle type="noVar" depart="677" id="Ross-Seventh-Sixth.25" route="route_Ross-Seventh-Sixth.25" />
<route id="route_WilliamPenn-Seventh-Sixth.7" edges="WilliamPenn-Seventh-Sixth WilliamPenn-Seventh-Sixth-2 Sixth-WilliamPenn-Grant Sixth-Grant-Ross Ross-Sixth-Seventh" />
<vehicle type="noVar" depart="678" id="WilliamPenn-Seventh-Sixth.7" route="route_WilliamPenn-Seventh-Sixth.7" />
<route id="route_Sixth-Smithfield-WilliamPenn.12" edges="Sixth-Smithfield-WilliamPenn Sixth-Smithfield-WilliamPenn-2 Sixth-WilliamPenn-Grant Grant-Sixth-Seventh" />
<vehicle type="noVar" depart="681" id="Sixth-Smithfield-WilliamPenn.12" route="route_Sixth-Smithfield-WilliamPenn.12" />
<route id="route_Ross-Fourth-Forbes.1" edges="Ross-Fourth-Forbes Ross-Fourth-Forbes-2 Forbes-Ross-RHS" />
<vehicle type="noVar" depart="692" id="Ross-Fourth-Forbes.1" route="route_Ross-Fourth-Forbes.1" />
<route id="route_Grant-Fourth-Forbes.7" edges="Grant-Fourth-Forbes Grant-Fourth-Forbes-2 Grant-Fourth-Forbes-3 Grant-Forbes-Fifth Grant-Fifth-Oliver Grant-Oliver-Sixth Grant-Sixth-Seventh" />
<vehicle type="noVar" depart="700" id="Grant-Fourth-Forbes.7" route="route_Grant-Fourth-Forbes.7" />
<route id="route_WilliamPenn-Seventh-Sixth.13" edges="WilliamPenn-Seventh-Sixth WilliamPenn-Seventh-Sixth-2 Sixth-WilliamPenn-Grant Sixth-Grant-Ross Sixth-Ross-RHS" />
<vehicle type="noVar" depart="718" id="WilliamPenn-Seventh-Sixth.13" route="route_WilliamPenn-Seventh-Sixth.13" />
<route id="route_Fifth-RHS-Ross.29" edges="Fifth-RHS-Ross Fifth-RHS-Ross-2 Fifth-Ross-Grant Fifth-Ross-Grant-2 Grant-Fifth-Forbes Grant-Forbes-Fourth" />
<vehicle type="noVar" depart="726" id="Fifth-RHS-Ross.29" route="route_Fifth-RHS-Ross.29" />
<route id="route_Grant-Seventh-Sixth.28" edges="Grant-Seventh-Sixth Grant-Seventh-Sixth-2 Grant-Sixth-Oliver Grant-Oliver-Fifth Grant-Fifth-Forbes Forbes-Grant-WilliamPenn WilliamPenn-Forbes-Fourth" />
<vehicle type="noVar" depart="732" id="Grant-Seventh-Sixth.28" route="route_Grant-Seventh-Sixth.28" />
<route id="route_Grant-Fourth-Forbes.9" edges="Grant-Fourth-Forbes Grant-Fourth-Forbes-2 Grant-Fourth-Forbes-3 Grant-Forbes-Fifth Grant-Fifth-Oliver Grant-Oliver-Sixth Grant-Sixth-Seventh" />
<vehicle type="noVar" depart="732" id="Grant-Fourth-Forbes.9" route="route_Grant-Fourth-Forbes.9" />
<route id="route_Ross-Seventh-Sixth.5" edges="Ross-Seventh-Sixth Ross-Seventh-Sixth-2 Sixth-Ross-RHS" />
<vehicle type="noVar" depart="732" id="Ross-Seventh-Sixth.5" route="route_Ross-Seventh-Sixth.5" />
<route id="route_Grant-Fourth-Forbes.3" edges="Grant-Fourth-Forbes Grant-Fourth-Forbes-2 Grant-Fourth-Forbes-3 Forbes-Grant-WilliamPenn Forbes-WilliamPenn-Smithfield" />
<vehicle type="noVar" depart="733" id="Grant-Fourth-Forbes.3" route="route_Grant-Fourth-Forbes.3" />
<route id="route_Oliver-Smithfield-WilliamPenn.34" edges="Oliver-Smithfield-WilliamPenn Oliver-Smithfield-WilliamPenn-2 Oliver-WilliamPenn-Grant Grant-Oliver-Sixth Grant-Sixth-Seventh" />
<vehicle type="noVar" depart="743" id="Oliver-Smithfield-WilliamPenn.34" route="route_Oliver-Smithfield-WilliamPenn.34" />
<route id="route_Forbes-RHS-Ross.55" edges="Forbes-RHS-Ross Forbes-RHS-Ross-2 Forbes-Ross-Grant Grant-Forbes-Fifth Grant-Fifth-Oliver Grant-Oliver-Sixth Sixth-Grant-Ross Ross-Sixth-Seventh" />
<vehicle type="noVar" depart="758" id="Forbes-RHS-Ross.55" route="route_Forbes-RHS-Ross.55" />