<?xml version="1.0" encoding="UTF-8"?>
<routes xmlns:xsi="http://www.w3.org/2001/XMLSchema-instance" xsi:noNamespaceSchemaLocation="http://sumo.dlr.de/xsd/routes_file.xsd">

<vType id="noVar" speedFactor="1.0" speedDev="0.0"/>
<trip type="noVar" depart="0" id="Grant-Fourth-Forbes.60" from="Grant-Fourth-Forbes" to="Grant-Sixth-Seventh"/>
<trip type="noVar" depart="2" id="Forbes-RHS-Ross.104" from="Forbes-RHS-Ross" to="Grant-Forbes-Fourth"/>
<trip type="noVar" depart="2" id="Ross-Fourth-Forbes.376" from="Ross-Fourth-Forbes" to="Forbes-Ross-RHS"/>
<trip type="noVar" depart="3" id="Forbes-RHS-Ross.462" from="Forbes-RHS-Ross" to="Forbes-WilliamPenn-Smithfield"/>
<trip type="noVar" depart="4" id="Oliver-Smithfield-WilliamPenn.108" from="Oliver-Smithfield-WilliamPenn" to="WilliamPenn-Forbes-Fourth"/>
<trip type="noVar" depart="6" id="Sixth-Smithfield-WilliamPenn.94" from="Sixth-Smithfield-WilliamPenn" to="Grant-Sixth-Seventh"/>
<trip type="noVar" depart="6" id="Ross-Seventh-Sixth.71" from="Ross-Seventh-Sixth" to="Fifth-Ross-RHS"/>
<trip type="noVar" depart="9" id="Fifth-RHS-Ross.14" from="Fifth-RHS-Ross" to="Fifth-WilliamPenn-Smithfield"/>
<trip type="noVar" depart="11" id="Sixth-RHS-Ross.389" from="Sixth-RHS-Ross" to="Ross-Sixth-Seventh"/>
<trip type="noVar" depart="11" id="Fifth-RHS-Ross.260" from="Fifth-RHS-Ross" to="Fifth-WilliamPenn-Smithfield"/>
<trip type="noVar" depart="12" id="Sixth-Smithfield-WilliamPenn.251" from="Sixth-Smithfield-WilliamPenn" to="Sixth-Ross-RHS"/>
<trip type="noVar" depart="14" id="Fifth-RHS-Ross.105" from="Fifth-RHS-Ross" to="Grant-Forbes-Fourth"/>
<trip type="noVar" depart="15" id="Oliver-Smithfield-WilliamPenn.185" from="Oliver-Smithfield-WilliamPenn" to="Grant-Forbes-Fourth"/>
<trip type="noVar" depart="15" id="Ross-Fourth-Forbes.22" from="Ross-Fourth-Forbes" to="Ross-Sixth-Seventh"/>
<trip type="noVar" depart="15" id="Ross-Fourth-Forbes.344" from="Ross-Fourth-Forbes" to="Forbes-Ross-RHS"/>
<trip type="noVar" depart="16" id="Grant-Fourth-Forbes.345" from="Grant-Fourth-Forbes" to="Ross-Sixth-Seventh"/>
<trip type="noVar" depart="18" id="Oliver-Smithfield-WilliamPenn.26" from="Oliver-Smithfield-WilliamPenn" to="Grant-Sixth-Seventh"/>
<trip type="noVar" depart="20" id="WilliamPenn-Seventh-Sixth.57" from="WilliamPenn-Seventh-Sixth" to="Grant-Sixth-Seventh"/>
<trip type="noVar" depart="20" id="Forbes-RHS-Ross.327" from="Forbes-RHS-Ross" to="Ross-Forbes-Fourth"/>
<trip type="noVar" depart="21" id="Grant-Fourth-Forbes.27" from="Grant-Fourth-Forbes" to="WilliamPenn-Forbes-Fourth"/>
<trip type="noVar" depart="21" id="Forbes-RHS-Ross.154" from="Forbes-RHS-Ross" to="Ross-Sixth-Seventh"/>
<trip type="noVar" depart="23" id="Sixth-RHS-Ross.230" from="Sixth-RHS-Ross" to="Sixth-WilliamPenn-Smithfield"/>
<trip type="noVar" depart="24" id="Ross-Seventh-Sixth.141" from="Ross-Seventh-Sixth" to="Grant-Sixth-Seventh"/>
<trip type="noVar" depart="24" id="Sixth-RHS-Ross.128" from="Sixth-RHS-Ross" to="Grant-Forbes-Fourth"/>
<trip type="noVar" depart="26" id="Fifth-RHS-Ross.91" from="Fifth-RHS-Ross" to="Grant-Forbes-Fourth"/>
<trip type="noVar" depart="27" id="Sixth-Smithfield-WilliamPenn.236" from="Sixth-Smithfield-WilliamPenn" to="Sixth-Ross-RHS"/>
<trip type="noVar" depart="27" id="Grant-Fourth-Forbes.37" from="Grant-Fourth-Forbes" to="Grant-Sixth-Seventh"/>
<trip type="noVar" depart="27" id="Grant-Fourth-Forbes.94" from="Grant-Fourth-Forbes" to="Ross-Sixth-Seventh"/>
<trip type="noVar" depart="28" id="Sixth-RHS-Ross.167" from="Sixth-RHS-Ross" to="Sixth-WilliamPenn-Smithfield"/>
<trip type="noVar" depart="28" id="Ross-Fourth-Forbes.74" from="Ross-Fourth-Forbes" to="Grant-Forbes-Fourth"/>
<trip type="noVar" depart="29" id="Fifth-RHS-Ross.39" from="Fifth-RHS-Ross" to="Grant-Sixth-Seventh"/>
<trip type="noVar" depart="31" id="WilliamPenn-Seventh-Sixth.198" from="WilliamPenn-Seventh-Sixth" to="Oliver-WilliamPenn-Smithfield"/>
<trip type="noVar" depart="33" id="Grant-Seventh-Sixth.126" from="Grant-Seventh-Sixth" to="Grant-Forbes-Fourth"/>
<trip type="noVar" depart="34" id="Fifth-RHS-Ross.299" from="Fifth-RHS-Ross" to="Fifth-WilliamPenn-Smithfield"/>
<trip type="noVar" depart="34" id="Forbes-RHS-Ross.431" from="Forbes-RHS-Ross" to="Grant-Forbes-Fourth"/>
<trip type="noVar" depart="37" id="Sixth-Smithfield-WilliamPenn.192" from="Sixth-Smithfield-WilliamPenn" to="Ross-Sixth-Seventh"/>
<trip type="noVar" depart="37" id="Forbes-Smithfield-WilliamPenn.25" from="Forbes-Smithfield-WilliamPenn" to="WilliamPenn-Forbes-Fourth"/>
<trip type="noVar" depart="38" id="Sixth-RHS-Ross.31" from="Sixth-RHS-Ross" to="Sixth-WilliamPenn-Smithfield"/>
<trip type="noVar" depart="38" id="Forbes-RHS-Ross.27" from="Forbes-RHS-Ross" to="Sixth-WilliamPenn-Smithfield"/>
<trip type="noVar" depart="38" id="Forbes-RHS-Ross.256" from="Forbes-RHS-Ross" to="WilliamPenn-Forbes-Fourth"/>
<trip type="noVar" depart="40" id="Fifth-Smithfield-WilliamPenn.39" from="Fifth-Smithfield-WilliamPenn" to="Grant-Sixth-Seventh"/>
<trip type="noVar" depart="42" id="Sixth-RHS-Ross.397" from="Sixth-RHS-Ross" to="Ross-Forbes-Fourth"/>
<trip type="noVar" depart="43" id="Grant-Seventh-Sixth.4" from="Grant-Seventh-Sixth" to="Grant-Forbes-Fourth"/>
<trip type="noVar" depart="43" id="Grant-Seventh-Sixth.474" from="Grant-Seventh-Sixth" to="Grant-Forbes-Fourth"/>
<trip type="noVar" depart="44" id="Ross-Seventh-Sixth.220" from="Ross-Seventh-Sixth" to="Ross-Forbes-Fourth"/>
<trip type="noVar" depart="46" id="Grant-Seventh-Sixth.466" from="Grant-Seventh-Sixth" to="Grant-Forbes-Fourth"/>
<trip type="noVar" depart="46" id="Sixth-Smithfield-WilliamPenn.85" from="Sixth-Smithfield-WilliamPenn" to="Fifth-WilliamPenn-Smithfield"/>
<trip type="noVar" depart="46" id="Fifth-RHS-Ross.202" from="Fifth-RHS-Ross" to="Ross-Forbes-Fourth"/>
<trip type="noVar" depart="47" id="Sixth-Smithfield-WilliamPenn.152" from="Sixth-Smithfield-WilliamPenn" to="Sixth-Ross-RHS"/>
<trip type="noVar" depart="48" id="Ross-Seventh-Sixth.15" from="Ross-Seventh-Sixth" to="Fifth-WilliamPenn-Smithfield"/>
<trip type="noVar" depart="49" id="Grant-Seventh-Sixth.108" from="Grant-Seventh-Sixth" to="Fifth-Ross-RHS"/>
<trip type="noVar" depart="49" id="Sixth-Smithfield-WilliamPenn.63" from="Sixth-Smithfield-WilliamPenn" to="Ross-Sixth-Seventh"/>
<trip type="noVar" depart="49" id="Fifth-Smithfield-WilliamPenn.22" from="Fifth-Smithfield-WilliamPenn" to="Grant-Sixth-Seventh"/>
<trip type="noVar" depart="50" id="WilliamPenn-Seventh-Sixth.100" from="WilliamPenn-Seventh-Sixth" to="Fifth-WilliamPenn-Smithfield"/>
<trip type="noVar" depart="51" id="Sixth-RHS-Ross.374" from="Sixth-RHS-Ross" to="Grant-Sixth-Seventh"/>
<trip type="noVar" depart="51" id="Fifth-RHS-Ross.188" from="Fifth-RHS-Ross" to="Grant-Forbes-Fourth"/>
<trip type="noVar" depart="52" id="Sixth-Smithfield-WilliamPenn.195" from="Sixth-Smithfield-WilliamPenn" to="Ross-Sixth-Seventh"/>
<trip type="noVar" depart="52" id="Fifth-Smithfield-WilliamPenn.29" from="Fifth-Smithfield-WilliamPenn" to="Grant-Sixth-Seventh"/>
<trip type="noVar" depart="53" id="Oliver-Smithfield-WilliamPenn.207" from="Oliver-Smithfield-WilliamPenn" to="WilliamPenn-Forbes-Fourth"/>
<trip type="noVar" depart="53" id="Ross-Seventh-Sixth.164" from="Ross-Seventh-Sixth" to="Forbes-Ross-RHS"/>
<trip type="noVar" depart="56" id="Ross-Seventh-Sixth.189" from="Ross-Seventh-Sixth" to="Grant-Sixth-Seventh"/>
<trip type="noVar" depart="57" id="WilliamPenn-Seventh-Sixth.228" from="WilliamPenn-Seventh-Sixth" to="Grant-Sixth-Seventh"/>
<trip type="noVar" depart="57" id="Sixth-RHS-Ross.378" from="Sixth-RHS-Ross" to="Fifth-WilliamPenn-Smithfield"/>
<trip type="noVar" depart="58" id="Oliver-Smithfield-WilliamPenn.200" from="Oliver-Smithfield-WilliamPenn" to="Grant-Sixth-Seventh"/>
<trip type="noVar" depart="58" id="Ross-Seventh-Sixth.109" from="Ross-Seventh-Sixth" to="Sixth-Ross-RHS"/>
<trip type="noVar" depart="58" id="Ross-Seventh-Sixth.485" from="Ross-Seventh-Sixth" to="Sixth-Ross-RHS"/>
<trip type="noVar" depart="58" id="Ross-Fourth-Forbes.228" from="Ross-Fourth-Forbes" to="Forbes-Ross-RHS"/>
<trip type="noVar" depart="59" id="Ross-Seventh-Sixth.494" from="Ross-Seventh-Sixth" to="WilliamPenn-Forbes-Fourth"/>
<trip type="noVar" depart="60" id="Ross-Seventh-Sixth.104" from="Ross-Seventh-Sixth" to="Ross-Forbes-Fourth"/>
<trip type="noVar" depart="60" id="Fifth-RHS-Ross.306" from="Fifth-RHS-Ross" to="Fifth-WilliamPenn-Smithfield"/>
<trip type="noVar" depart="60" id="Ross-Fourth-Forbes.156" from="Ross-Fourth-Forbes" to="Forbes-Ross-RHS"/>
<trip type="noVar" depart="61" id="Grant-Fourth-Forbes.66" from="Grant-Fourth-Forbes" to="Grant-Sixth-Seventh"/>
<trip type="noVar" depart="61" id="Fifth-RHS-Ross.226" from="Fifth-RHS-Ross" to="WilliamPenn-Forbes-Fourth"/>
<trip type="noVar" depart="62" id="Ross-Seventh-Sixth.26" from="Ross-Seventh-Sixth" to="Grant-Forbes-Fourth"/>
<trip type="noVar" depart="64" id="Oliver-Smithfield-WilliamPenn.259" from="Oliver-Smithfield-WilliamPenn" to="Ross-Sixth-Seventh"/>
<trip type="noVar" depart="64" id="Sixth-RHS-Ross.82" from="Sixth-RHS-Ross" to="Sixth-WilliamPenn-Smithfield"/>
<trip type="noVar" depart="66" id="Forbes-RHS-Ross.339" from="Forbes-RHS-Ross" to="Ross-Forbes-Fourth"/>
<trip type="noVar" depart="67" id="Fifth-RHS-Ross.279" from="Fifth-RHS-Ross" to="Grant-Forbes-Fourth"/>
<trip type="noVar" depart="69" id="Grant-Fourth-Forbes.5" from="Grant-Fourth-Forbes" to="Grant-Sixth-Seventh"/>
<trip type="noVar" depart="69" id="Ross-Seventh-Sixth.297" from="Ross-Seventh-Sixth" to="WilliamPenn-Forbes-Fourth"/>
<trip type="noVar" depart="70" id="Oliver-Smithfield-WilliamPenn.71" from="Oliver-Smithfield-WilliamPenn" to="Grant-Sixth-Seventh"/>
<trip type="noVar" depart="71" id="Oliver-Smithfield-WilliamPenn.20" from="Oliver-Smithfield-WilliamPenn" to="Grant-Sixth-Seventh"/>
<trip type="noVar" depart="71" id="Sixth-RHS-Ross.252" from="Sixth-RHS-Ross" to="Sixth-WilliamPenn-Smithfield"/>
<trip type="noVar" depart="72" id="Sixth-Smithfield-WilliamPenn.139" from="Sixth-Smithfield-WilliamPenn" to="Oliver-WilliamPenn-Smithfield"/>
<trip type="noVar" depart="75" id="Grant-Fourth-Forbes.210" from="Grant-Fourth-Forbes" to="Grant-Sixth-Seventh"/>
<trip type="noVar" depart="75" id="Ross-Fourth-Forbes.331" from="Ross-Fourth-Forbes" to="Forbes-Ross-RHS"/>
<trip type="noVar" depart="75" id="Ross-Fourth-Forbes.388" from="Ross-Fourth-Forbes" to="Sixth-WilliamPenn-Smithfield"/>
<trip type="noVar" depart="76" id="Grant-Seventh-Sixth.483" from="Grant-Seventh-Sixth" to="Fifth-Ross-RHS"/>
<trip type="noVar" depart="76" id="WilliamPenn-Seventh-Sixth.264" from="WilliamPenn-Seventh-Sixth" to="Sixth-WilliamPenn-Smithfield"/>
<trip type="noVar" depart="76" id="Sixth-Smithfield-WilliamPenn.300" from="Sixth-Smithfield-WilliamPenn" to="Sixth-Ross-RHS"/>
<trip type="noVar" depart="78" id="WilliamPenn-Seventh-Sixth.88" from="WilliamPenn-Seventh-Sixth" to="Sixth-Ross-RHS"/>
<trip type="noVar" depart="78" id="Grant-Fifth-Oliver.30" from="Grant-Fifth-Oliver" to="Grant-Sixth-Seventh"/>
<trip type="noVar" depart="78" id="Ross-Fourth-Forbes.240" from="Ross-Fourth-Forbes" to="Sixth-Ross-RHS"/>
<trip type="noVar" depart="79" id="Forbes-RHS-Ross.280" from="Forbes-RHS-Ross" to="Forbes-WilliamPenn-Smithfield"/>
<trip type="noVar" depart="80" id="Ross-Seventh-Sixth.287" from="Ross-Seventh-Sixth" to="Sixth-Ross-RHS"/>
<trip type="noVar" depart="80" id="Forbes-RHS-Ross.346" from="Forbes-RHS-Ross" to="Grant-Forbes-Fourth"/>
<trip type="noVar" depart="81" id="Grant-Fourth-Forbes.308" from="Grant-Fourth-Forbes" to="Forbes-WilliamPenn-Smithfield"/>
<trip type="noVar" depart="81" id="Sixth-RHS-Ross.288" from="Sixth-RHS-Ross" to="Sixth-WilliamPenn-Smithfield"/>
<trip type="noVar" depart="83" id="Ross-Seventh-Sixth.185" from="Ross-Seventh-Sixth" to="Grant-Forbes-Fourth"/>
<trip type="noVar" depart="83" id="Forbes-RHS-Ross.119" from="Forbes-RHS-Ross" to="Grant-Forbes-Fourth"/>
<trip type="noVar" depart="83" id="Ross-Fourth-Forbes.17" from="Ross-Fourth-Forbes" to="Forbes-WilliamPenn-Smithfield"/>
<trip type="noVar" depart="83" id="Ross-Fourth-Forbes.42" from="Ross-Fourth-Forbes" to="Ross-Sixth-Seventh"/>
<trip type="noVar" depart="83" id="Ross-Fourth-Forbes.106" from="Ross-Fourth-Forbes" to="Forbes-Ross-RHS"/>
<trip type="noVar" depart="85" id="Grant-Seventh-Sixth.23" from="Grant-Seventh-Sixth" to="Grant-Forbes-Fourth"/>
<trip type="noVar" depart="85" id="Sixth-Smithfield-WilliamPenn.82" from="Sixth-Smithfield-WilliamPenn" to="Grant-Forbes-Fourth"/>
<trip type="noVar" depart="86" id="Grant-Seventh-Sixth.280" from="Grant-Seventh-Sixth" to="Grant-Forbes-Fourth"/>
<trip type="noVar" depart="91" id="Sixth-Smithfield-WilliamPenn.113" from="Sixth-Smithfield-WilliamPenn" to="Sixth-Ross-RHS"/>
<trip type="noVar" depart="91" id="Grant-Fourth-Forbes.31" from="Grant-Fourth-Forbes" to="Fifth-Ross-RHS"/>
<trip type="noVar" depart="91" id="Forbes-RHS-Ross.470" from="Forbes-RHS-Ross" to="Grant-Forbes-Fourth"/>
<trip type="noVar" depart="92" id="WilliamPenn-Seventh-Sixth.217" from="WilliamPenn-Seventh-Sixth" to="WilliamPenn-Forbes-Fourth"/>
<trip type="noVar" depart="92" id="Sixth-Smithfield-WilliamPenn.49" from="Sixth-Smithfield-WilliamPenn" to="Sixth-Ross-RHS"/>
<trip type="noVar" depart="92" id="Ross-Fourth-Forbes.395" from="Ross-Fourth-Forbes" to="Grant-Forbes-Fourth"/>
<trip type="noVar" depart="94" id="Ross-Seventh-Sixth.429" from="Ross-Seventh-Sixth" to="Grant-Forbes-Fourth"/>
<trip type="noVar" depart="95" id="Forbes-RHS-Ross.159" from="Forbes-RHS-Ross" to="Forbes-WilliamPenn-Smithfield"/>
<trip type="noVar" depart="95" id="Forbes-RHS-Ross.278" from="Forbes-RHS-Ross" to="Ross-Forbes-Fourth"/>
<trip type="noVar" depart="96" id="Sixth-Smithfield-WilliamPenn.119" from="Sixth-Smithfield-WilliamPenn" to="Sixth-Ross-RHS"/>
<trip type="noVar" depart="96" id="Grant-Fourth-Forbes.369" from="Grant-Fourth-Forbes" to="Fifth-Ross-RHS"/>
<trip type="noVar" depart="97" id="Ross-Fourth-Forbes.300" from="Ross-Fourth-Forbes" to="Fifth-Ross-RHS"/>
<trip type="noVar" depart="98" id="Grant-Seventh-Sixth.305" from="Grant-Seventh-Sixth" to="Ross-Sixth-Seventh"/>
<trip type="noVar" depart="98" id="Sixth-Smithfield-WilliamPenn.110" from="Sixth-Smithfield-WilliamPenn" to="Ross-Forbes-Fourth"/>
<trip type="noVar" depart="99" id="Sixth-Smithfield-WilliamPenn.289" from="Sixth-Smithfield-WilliamPenn" to="Sixth-Ross-RHS"/>
<trip type="noVar" depart="99" id="Ross-Fourth-Forbes.107" from="Ross-Fourth-Forbes" to="Sixth-Ross-RHS"/>
<trip type="noVar" depart="100" id="Sixth-RHS-Ross.123" from="Sixth-RHS-Ross" to="Grant-Sixth-Seventh"/>
<trip type="noVar" depart="103" id="Ross-Seventh-Sixth.102" from="Ross-Seventh-Sixth" to="Ross-Forbes-Fourth"/>
<trip type="noVar" depart="104" id="Ross-Seventh-Sixth.127" from="Ross-Seventh-Sixth" to="Sixth-Ross-RHS"/>
<trip type="noVar" depart="104" id="Sixth-RHS-Ross.314" from="Sixth-RHS-Ross" to="Fifth-Ross-RHS"/>
<trip type="noVar" depart="105" id="Grant-Seventh-Sixth.234" from="Grant-Seventh-Sixth" to="Sixth-Ross-RHS"/>
<trip type="noVar" depart="105" id="Fifth-Smithfield-WilliamPenn.51" from="Fifth-Smithfield-WilliamPenn" to="Fifth-Ross-RHS"/>
<trip type="noVar" depart="105" id="Ross-Seventh-Sixth.264" from="Ross-Seventh-Sixth" to="Ross-Forbes-Fourth"/>
<trip type="noVar" depart="108" id="Grant-Fourth-Forbes.24" from="Grant-Fourth-Forbes" to="Forbes-Ross-RHS"/>
<trip type="noVar" depart="109" id="Grant-Seventh-Sixth.110" from="Grant-Seventh-Sixth" to="Grant-Forbes-Fourth"/>
<trip type="noVar" depart="109" id="WilliamPenn-Seventh-Sixth.132" from="WilliamPenn-Seventh-Sixth" to="Forbes-WilliamPenn-Smithfield"/>
<trip type="noVar" depart="114" id="Grant-Seventh-Sixth.119" from="Grant-Seventh-Sixth" to="Fifth-WilliamPenn-Smithfield"/>
<trip type="noVar" depart="114" id="Sixth-RHS-Ross.329" from="Sixth-RHS-Ross" to="Sixth-WilliamPenn-Smithfield"/>
<trip type="noVar" depart="114" id="Ross-Fourth-Forbes.129" from="Ross-Fourth-Forbes" to="Ross-Sixth-Seventh"/>
<trip type="noVar" depart="115" id="Fifth-RHS-Ross.196" from="Fifth-RHS-Ross" to="Grant-Forbes-Fourth"/>
<trip type="noVar" depart="116" id="Grant-Fourth-Forbes.23" from="Grant-Fourth-Forbes" to="Forbes-Ross-RHS"/>
<trip type="noVar" depart="117" id="Grant-Seventh-Sixth.185" from="Grant-Seventh-Sixth" to="Forbes-WilliamPenn-Smithfield"/>
<trip type="noVar" depart="117" id="Forbes-RHS-Ross.47" from="Forbes-RHS-Ross" to="Ross-Forbes-Fourth"/>
<trip type="noVar" depart="119" id="Grant-Fourth-Forbes.19" from="Grant-Fourth-Forbes" to="WilliamPenn-Forbes-Fourth"/>
<trip type="noVar" depart="119" id="Ross-Seventh-Sixth.21" from="Ross-Seventh-Sixth" to="Sixth-Ross-RHS"/>
<trip type="noVar" depart="120" id="Grant-Fourth-Forbes.199" from="Grant-Fourth-Forbes" to="Forbes-WilliamPenn-Smithfield"/>
<trip type="noVar" depart="120" id="Sixth-RHS-Ross.328" from="Sixth-RHS-Ross" to="Grant-Sixth-Seventh"/>
<trip type="noVar" depart="120" id="Forbes-RHS-Ross.455" from="Forbes-RHS-Ross" to="Ross-Forbes-Fourth"/>
<trip type="noVar" depart="122" id="WilliamPenn-Seventh-Sixth.262" from="WilliamPenn-Seventh-Sixth" to="Sixth-WilliamPenn-Smithfield"/>
<trip type="noVar" depart="122" id="Grant-Fourth-Forbes.301" from="Grant-Fourth-Forbes" to="WilliamPenn-Forbes-Fourth"/>
<trip type="noVar" depart="123" id="Ross-Seventh-Sixth.246" from="Ross-Seventh-Sixth" to="Fifth-Ross-RHS"/>
<trip type="noVar" depart="123" id="Fifth-RHS-Ross.305" from="Fifth-RHS-Ross" to="Ross-Sixth-Seventh"/>
<trip type="noVar" depart="124" id="Sixth-Smithfield-WilliamPenn.111" from="Sixth-Smithfield-WilliamPenn" to="Ross-Sixth-Seventh"/>
<trip type="noVar" depart="124" id="Forbes-RHS-Ross.130" from="Forbes-RHS-Ross" to="Grant-Forbes-Fourth"/>
<trip type="noVar" depart="124" id="Ross-Fourth-Forbes.2" from="Ross-Fourth-Forbes" to="Ross-Sixth-Seventh"/>
<trip type="noVar" depart="125" id="Sixth-RHS-Ross.368" from="Sixth-RHS-Ross" to="Ross-Sixth-Seventh"/>
<trip type="noVar" depart="125" id="Ross-Fourth-Forbes.260" from="Ross-Fourth-Forbes" to="Ross-Sixth-Seventh"/>
<trip type="noVar" depart="127" id="Ross-Fourth-Forbes.8" from="Ross-Fourth-Forbes" to="Ross-Sixth-Seventh"/>
<trip type="noVar" depart="129" id="Grant-Fourth-Forbes.436" from="Grant-Fourth-Forbes" to="Grant-Sixth-Seventh"/>
<trip type="noVar" depart="131" id="Grant-Seventh-Sixth.404" from="Grant-Seventh-Sixth" to="Grant-Forbes-Fourth"/>
<trip type="noVar" depart="134" id="Oliver-Smithfield-WilliamPenn.25" from="Oliver-Smithfield-WilliamPenn" to="Fifth-WilliamPenn-Smithfield"/>
<trip type="noVar" depart="134" id="Sixth-RHS-Ross.225" from="Sixth-RHS-Ross" to="Grant-Forbes-Fourth"/>
<trip type="noVar" depart="135" id="Grant-Seventh-Sixth.522" from="Grant-Seventh-Sixth" to="WilliamPenn-Forbes-Fourth"/>
<trip type="noVar" depart="136" id="WilliamPenn-Seventh-Sixth.134" from="WilliamPenn-Seventh-Sixth" to="Sixth-WilliamPenn-Smithfield"/>
<trip type="noVar" depart="136" id="WilliamPenn-Seventh-Sixth.246" from="WilliamPenn-Seventh-Sixth" to="Fifth-WilliamPenn-Smithfield"/>
<trip type="noVar" depart="136" id="Fifth-RHS-Ross.102" from="Fifth-RHS-Ross" to="Fifth-WilliamPenn-Smithfield"/>
<trip type="noVar" depart="137" id="Ross-Seventh-Sixth.47" from="Ross-Seventh-Sixth" to="Fifth-Ross-RHS"/>
<trip type="noVar" depart="138" id="Ross-Seventh-Sixth.431" from="Ross-Seventh-Sixth" to="Fifth-Ross-RHS"/>
<trip type="noVar" depart="140" id="Forbes-RHS-Ross.72" from="Forbes-RHS-Ross" to="Ross-Forbes-Fourth"/>
<trip type="noVar" depart="141" id="Ross-Fourth-Forbes.48" from="Ross-Fourth-Forbes" to="Forbes-Ross-RHS"/>
<trip type="noVar" depart="142" id="Ross-Seventh-Sixth.38" from="Ross-Seventh-Sixth" to="Sixth-WilliamPenn-Smithfield"/>
<trip type="noVar" depart="142" id="Ross-Seventh-Sixth.481" from="Ross-Seventh-Sixth" to="Sixth-WilliamPenn-Smithfield"/>
<trip type="noVar" depart="142" id="Sixth-RHS-Ross.178" from="Sixth-RHS-Ross" to="Grant-Sixth-Seventh"/>
<trip type="noVar" depart="143" id="Grant-Seventh-Sixth.421" from="Grant-Seventh-Sixth" to="Fifth-Ross-RHS"/>
<trip type="noVar" depart="143" id="Ross-Seventh-Sixth.483" from="Ross-Seventh-Sixth" to="Ross-Forbes-Fourth"/>
<trip type="noVar" depart="144" id="Ross-Seventh-Sixth.374" from="Ross-Seventh-Sixth" to="Ross-Forbes-Fourth"/>
<trip type="noVar" depart="145" id="Ross-Seventh-Sixth.73" from="Ross-Seventh-Sixth" to="Ross-Forbes-Fourth"/>
<trip type="noVar" depart="146" id="Grant-Fifth-Oliver.12" from="Grant-Fifth-Oliver" to="Grant-Sixth-Seventh"/>
<trip type="noVar" depart="146" id="Grant-Fourth-Forbes.404" from="Grant-Fourth-Forbes" to="Grant-Sixth-Seventh"/>
<trip type="noVar" depart="147" id="Grant-Seventh-Sixth.60" from="Grant-Seventh-Sixth" to="Fifth-WilliamPenn-Smithfield"/>
<trip type="noVar" depart="147" id="WilliamPenn-Seventh-Sixth.175" from="WilliamPenn-Seventh-Sixth" to="Sixth-Ross-RHS"/>
<trip type="noVar" depart="148" id="WilliamPenn-Seventh-Sixth.34" from="WilliamPenn-Seventh-Sixth" to="Sixth-WilliamPenn-Smithfield"/>
<trip type="noVar" depart="149" id="Grant-Fourth-Forbes.466" from="Grant-Fourth-Forbes" to="Ross-Sixth-Seventh"/>
<trip type="noVar" depart="150" id="Oliver-Smithfield-WilliamPenn.53" from="Oliver-Smithfield-WilliamPenn" to="Sixth-WilliamPenn-Smithfield"/>
<trip type="noVar" depart="152" id="Grant-Seventh-Sixth.51" from="Grant-Seventh-Sixth" to="Forbes-Ross-RHS"/>
<trip type="noVar" depart="154" id="Sixth-Smithfield-WilliamPenn.184" from="Sixth-Smithfield-WilliamPenn" to="Sixth-Ross-RHS"/>
<trip type="noVar" depart="154" id="Fifth-RHS-Ross.61" from="Fifth-RHS-Ross" to="Grant-Forbes-Fourth"/>
<trip type="noVar" depart="155" id="Grant-Seventh-Sixth.478" from="Grant-Seventh-Sixth" to="Grant-Forbes-Fourth"/>
<trip type="noVar" depart="155" id="Oliver-Smithfield-WilliamPenn.133" from="Oliver-Smithfield-WilliamPenn" to="Fifth-WilliamPenn-Smithfield"/>
<trip type="noVar" depart="155" id="Forbes-RHS-Ross.17" from="Forbes-RHS-Ross" to="Grant-Forbes-Fourth"/>
<trip type="noVar" depart="156" id="Oliver-Smithfield-WilliamPenn.10" from="Oliver-Smithfield-WilliamPenn" to="Grant-Sixth-Seventh"/>
<trip type="noVar" depart="156" id="Oliver-Smithfield-WilliamPenn.189" from="Oliver-Smithfield-WilliamPenn" to="WilliamPenn-Forbes-Fourth"/>
<trip type="noVar" depart="156" id="Ross-Seventh-Sixth.412" from="Ross-Seventh-Sixth" to="Sixth-Ross-RHS"/>
<trip type="noVar" depart="156" id="Ross-Fourth-Forbes.233" from="Ross-Fourth-Forbes" to="Forbes-Ross-RHS"/>
<trip type="noVar" depart="156" id="Ross-Fourth-Forbes.465" from="Ross-Fourth-Forbes" to="Forbes-Ross-RHS"/>
<trip type="noVar" depart="157" id="Forbes-RHS-Ross.43" from="Forbes-RHS-Ross" to="Grant-Forbes-Fourth"/>
<trip type="noVar" depart="158" id="Ross-Fourth-Forbes.285" from="Ross-Fourth-Forbes" to="Forbes-WilliamPenn-Smithfield"/>
<trip type="noVar" depart="159" id="Sixth-Smithfield-WilliamPenn.323" from="Sixth-Smithfield-WilliamPenn" to="Fifth-Ross-RHS"/>
<trip type="noVar" depart="159" id="Forbes-RHS-Ross.330" from="Forbes-RHS-Ross" to="Forbes-WilliamPenn-Smithfield"/>
<trip type="noVar" depart="160" id="Sixth-Smithfield-WilliamPenn.45" from="Sixth-Smithfield-WilliamPenn" to="Sixth-Ross-RHS"/>
<trip type="noVar" depart="163" id="Oliver-Smithfield-WilliamPenn.206" from="Oliver-Smithfield-WilliamPenn" to="Grant-Sixth-Seventh"/>
<trip type="noVar" depart="165" id="Ross-Fourth-Forbes.429" from="Ross-Fourth-Forbes" to="Ross-Sixth-Seventh"/>
<trip type="noVar" depart="167" id="Forbes-RHS-Ross.124" from="Forbes-RHS-Ross" to="Grant-Forbes-Fourth"/>
<trip type="noVar" depart="168" id="Sixth-Smithfield-WilliamPenn.232" from="Sixth-Smithfield-WilliamPenn" to="WilliamPenn-Forbes-Fourth"/>
<trip type="noVar" depart="168" id="Ross-Seventh-Sixth.194" from="Ross-Seventh-Sixth" to="WilliamPenn-Forbes-Fourth"/>
<trip type="noVar" depart="170" id="WilliamPenn-Seventh-Sixth.120" from="WilliamPenn-Seventh-Sixth" to="Sixth-WilliamPenn-Smithfield"/>
<trip type="noVar" depart="170" id="Oliver-Smithfield-WilliamPenn.199" from="Oliver-Smithfield-WilliamPenn" to="Grant-Forbes-Fourth"/>
<trip type="noVar" depart="170" id="Grant-Fourth-Forbes.353" from="Grant-Fourth-Forbes" to="Grant-Sixth-Seventh"/>
<trip type="noVar" depart="171" id="Ross-Seventh-Sixth.121" from="Ross-Seventh-Sixth" to="Fifth-Ross-RHS"/>
<trip type="noVar" depart="172" id="Fifth-RHS-Ross.73" from="Fifth-RHS-Ross" to="Ross-Forbes-Fourth"/>
<trip type="noVar" depart="172" id="Ross-Fourth-Forbes.186" from="Ross-Fourth-Forbes" to="Grant-Forbes-Fourth"/>
<trip type="noVar" depart="174" id="Ross-Fourth-Forbes.257" from="Ross-Fourth-Forbes" to="Ross-Sixth-Seventh"/>
<trip type="noVar" depart="175" id="Sixth-RHS-Ross.206" from="Sixth-RHS-Ross" to="Sixth-WilliamPenn-Smithfield"/>
<trip type="noVar" depart="176" id="Forbes-RHS-Ross.251" from="Forbes-RHS-Ross" to="Ross-Forbes-Fourth"/>
<trip type="noVar" depart="177" id="Grant-Fourth-Forbes.7" from="Grant-Fourth-Forbes" to="Sixth-WilliamPenn-Smithfield"/>
<trip type="noVar" depart="177" id="Fifth-RHS-Ross.240" from="Fifth-RHS-Ross" to="Ross-Forbes-Fourth"/>
<trip type="noVar" depart="178" id="Forbes-RHS-Ross.290" from="Forbes-RHS-Ross" to="Ross-Forbes-Fourth"/>
<trip type="noVar" depart="180" id="Sixth-RHS-Ross.343" from="Sixth-RHS-Ross" to="WilliamPenn-Forbes-Fourth"/>
<trip type="noVar" depart="180" id="Fifth-RHS-Ross.158" from="Fifth-RHS-Ross" to="WilliamPenn-Forbes-Fourth"/>
<trip type="noVar" depart="181" id="Grant-Fourth-Forbes.447" from="Grant-Fourth-Forbes" to="Grant-Sixth-Seventh"/>
<trip type="noVar" depart="181" id="Sixth-RHS-Ross.210" from="Sixth-RHS-Ross" to="Ross-Sixth-Seventh"/>
<trip type="noVar" depart="182" id="Grant-Seventh-Sixth.390" from="Grant-Seventh-Sixth" to="Grant-Forbes-Fourth"/>
<trip type="noVar" depart="183" id="Oliver-Smithfield-WilliamPenn.28" from="Oliver-Smithfield-WilliamPenn" to="Grant-Sixth-Seventh"/>
<trip type="noVar" depart="183" id="Oliver-Smithfield-WilliamPenn.147" from="Oliver-Smithfield-WilliamPenn" to="Grant-Sixth-Seventh"/>
<trip type="noVar" depart="183" id="Fifth-RHS-Ross.36" from="Fifth-RHS-Ross" to="Fifth-WilliamPenn-Smithfield"/>
<trip type="noVar" depart="184" id="Ross-Seventh-Sixth.22" from="Ross-Seventh-Sixth" to="Grant-Sixth-Seventh"/>
<trip type="noVar" depart="184" id="Ross-Fourth-Forbes.46" from="Ross-Fourth-Forbes" to="Ross-Sixth-Seventh"/>
<trip type="noVar" depart="185" id="Fifth-Smithfield-WilliamPenn.79" from="Fifth-Smithfield-WilliamPenn" to="Ross-Sixth-Seventh"/>
<trip type="noVar" depart="186" id="Ross-Seventh-Sixth.285" from="Ross-Seventh-Sixth" to="Sixth-Ross-RHS"/>
<trip type="noVar" depart="187" id="Grant-Fourth-Forbes.435" from="Grant-Fourth-Forbes" to="Grant-Sixth-Seventh"/>
<trip type="noVar" depart="189" id="Sixth-Smithfield-WilliamPenn.68" from="Sixth-Smithfield-WilliamPenn" to="Grant-Forbes-Fourth"/>
<trip type="noVar" depart="190" id="Grant-Seventh-Sixth.349" from="Grant-Seventh-Sixth" to="Sixth-Ross-RHS"/>
<trip type="noVar" depart="190" id="Fifth-RHS-Ross.97" from="Fifth-RHS-Ross" to="WilliamPenn-Forbes-Fourth"/>
<trip type="noVar" depart="191" id="Grant-Fourth-Forbes.471" from="Grant-Fourth-Forbes" to="Ross-Forbes-Fourth"/>
<trip type="noVar" depart="192" id="Ross-Fourth-Forbes.3" from="Ross-Fourth-Forbes" to="Sixth-WilliamPenn-Smithfield"/>
<trip type="noVar" depart="192" id="Ross-Fourth-Forbes.137" from="Ross-Fourth-Forbes" to="Forbes-Ross-RHS"/>
<trip type="noVar" depart="193" id="Forbes-RHS-Ross.372" from="Forbes-RHS-Ross" to="Grant-Forbes-Fourth"/>
<trip type="noVar" depart="194" id="Grant-Seventh-Sixth.461" from="Grant-Seventh-Sixth" to="Fifth-WilliamPenn-Smithfield"/>
<trip type="noVar" depart="196" id="Oliver-Smithfield-WilliamPenn.283" from="Oliver-Smithfield-WilliamPenn" to="WilliamPenn-Forbes-Fourth"/>
<trip type="noVar" depart="196" id="Ross-Fourth-Forbes.349" from="Ross-Fourth-Forbes" to="Sixth-Ross-RHS"/>
<trip type="noVar" depart="197" id="Forbes-RHS-Ross.62" from="Forbes-RHS-Ross" to="Forbes-WilliamPenn-Smithfield"/>
<trip type="noVar" depart="199" id="Grant-Seventh-Sixth.409" from="Grant-Seventh-Sixth" to="Fifth-Ross-RHS"/>
<trip type="noVar" depart="200" id="Ross-Fourth-Forbes.41" from="Ross-Fourth-Forbes" to="Ross-Sixth-Seventh"/>
<trip type="noVar" depart="201" id="Grant-Fourth-Forbes.214" from="Grant-Fourth-Forbes" to="Grant-Sixth-Seventh"/>
<trip type="noVar" depart="201" id="Forbes-RHS-Ross.122" from="Forbes-RHS-Ross" to="Ross-Sixth-Seventh"/>
<trip type="noVar" depart="201" id="Forbes-RHS-Ross.312" from="Forbes-RHS-Ross" to="Ross-Forbes-Fourth"/>
<trip type="noVar" depart="202" id="Ross-Fourth-Forbes.187" from="Ross-Fourth-Forbes" to="Forbes-Ross-RHS"/>
<trip type="noVar" depart="204" id="WilliamPenn-Seventh-Sixth.94" from="WilliamPenn-Seventh-Sixth" to="Sixth-WilliamPenn-Smithfield"/>
<trip type="noVar" depart="206" id="Grant-Fourth-Forbes.291" from="Grant-Fourth-Forbes" to="Grant-Sixth-Seventh"/>
<trip type="noVar" depart="207" id="Oliver-Smithfield-WilliamPenn.210" from="Oliver-Smithfield-WilliamPenn" to="Grant-Forbes-Fourth"/>
<trip type="noVar" depart="207" id="Fifth-RHS-Ross.166" from="Fifth-RHS-Ross" to="Fifth-WilliamPenn-Smithfield"/>
<trip type="noVar" depart="208" id="WilliamPenn-Seventh-Sixth.184" from="WilliamPenn-Seventh-Sixth" to="Ross-Sixth-Seventh"/>
<trip type="noVar" depart="208" id="Grant-Fourth-Forbes.97" from="Grant-Fourth-Forbes" to="Forbes-WilliamPenn-Smithfield"/>
<trip type="noVar" depart="209" id="WilliamPenn-Seventh-Sixth.95" from="WilliamPenn-Seventh-Sixth" to="Grant-Sixth-Seventh"/>
<trip type="noVar" depart="210" id="WilliamPenn-Seventh-Sixth.16" from="WilliamPenn-Seventh-Sixth" to="Sixth-Ross-RHS"/>
<trip type="noVar" depart="210" id="Grant-Fourth-Forbes.425" from="Grant-Fourth-Forbes" to="Grant-Sixth-Seventh"/>
<trip type="noVar" depart="210" id="Ross-Seventh-Sixth.501" from="Ross-Seventh-Sixth" to="Forbes-Ross-RHS"/>
<trip type="noVar" depart="211" id="Ross-Seventh-Sixth.256" from="Ross-Seventh-Sixth" to="Ross-Forbes-Fourth"/>
<trip type="noVar" depart="211" id="Fifth-RHS-Ross.84" from="Fifth-RHS-Ross" to="Fifth-WilliamPenn-Smithfield"/>