<?xml version="1.0" encoding="UTF-8"?>
<routes xmlns:xsi="http://www.w3.org/2001/XMLSchema-instance" xsi:noNamespaceSchemaLocation="http://sumo.dlr.de/xsd/routes_file.xsd">

<vType id="noVar" speedFactor="1.0" speedDev="0.0"/>
<trip type="noVar" depart="0" id="Forbes-RHS-Ross.80" from="Forbes-RHS-Ross" to="Forbes-WilliamPenn-Smithfield"/>
<trip type="noVar" depart="1" id="Sixth-Smithfield-WilliamPenn.343" from="Sixth-Smithfield-WilliamPenn" to="Ross-Forbes-Fourth"/>
<trip type="noVar" depart="1" id="Ross-Seventh-Sixth.321" from="Ross-Seventh-Sixth" to="Forbes-Ross-RHS"/>
<trip type="noVar" depart="3" id="Grant-Fourth-Forbes.493" from="Grant-Fourth-Forbes" to="Grant-Sixth-Seventh"/>
<trip type="noVar" depart="3" id="Ross-Seventh-Sixth.56" from="Ross-Seventh-Sixth" to="Oliver-WilliamPenn-Smithfield"/>
<trip type="noVar" depart="3" id="Ross-Seventh-Sixth.454" from="Ross-Seventh-Sixth" to="Sixth-Ross-RHS"/>
<trip type="noVar" depart="4" id="Sixth-Smithfield-WilliamPenn.160" from="Sixth-Smithfield-WilliamPenn" to="Grant-Forbes-Fourth"/>
<trip type="noVar" depart="4" id="Ross-Seventh-Sixth.281" from="Ross-Seventh-Sixth" to="Sixth-Ross-RHS"/>
<trip type="noVar" depart="6" id="WilliamPenn-Seventh-Sixth.301" from="WilliamPenn-Seventh-Sixth" to="Grant-Forbes-Fourth"/>
<trip type="noVar" depart="6" id="Oliver-Smithfield-WilliamPenn.301" from="Oliver-Smithfield-WilliamPenn" to="Sixth-Ross-RHS"/>
<trip type="noVar" depart="6" id="Grant-Fourth-Forbes.188" from="Grant-Fourth-Forbes" to="Ross-Forbes-Fourth"/>
<trip type="noVar" depart="6" id="Ross-Seventh-Sixth.91" from="Ross-Seventh-Sixth" to="Grant-Sixth-Seventh"/>
<trip type="noVar" depart="7" id="Grant-Seventh-Sixth.584" from="Grant-Seventh-Sixth" to="WilliamPenn-Forbes-Fourth"/>
<trip type="noVar" depart="7" id="Grant-Fourth-Forbes.594" from="Grant-Fourth-Forbes" to="Sixth-Ross-RHS"/>
<trip type="noVar" depart="7" id="Sixth-RHS-Ross.298" from="Sixth-RHS-Ross" to="Ross-Sixth-Seventh"/>
<trip type="noVar" depart="8" id="Forbes-RHS-Ross.127" from="Forbes-RHS-Ross" to="Grant-Forbes-Fourth"/>
<trip type="noVar" depart="9" id="Grant-Fourth-Forbes.652" from="Grant-Fourth-Forbes" to="Forbes-Ross-RHS"/>
<trip type="noVar" depart="9" id="Ross-Seventh-Sixth.290" from="Ross-Seventh-Sixth" to="Sixth-Ross-RHS"/>
<trip type="noVar" depart="10" id="Grant-Seventh-Sixth.561" from="Grant-Seventh-Sixth" to="Grant-Forbes-Fourth"/>
<trip type="noVar" depart="10" id="Forbes-Smithfield-WilliamPenn.7" from="Forbes-Smithfield-WilliamPenn" to="WilliamPenn-Forbes-Fourth"/>
<trip type="noVar" depart="10" id="Fifth-RHS-Ross.358" from="Fifth-RHS-Ross" to="Sixth-WilliamPenn-Smithfield"/>
<trip type="noVar" depart="11" id="Ross-Seventh-Sixth.659" from="Ross-Seventh-Sixth" to="WilliamPenn-Forbes-Fourth"/>
<trip type="noVar" depart="11" id="Sixth-RHS-Ross.516" from="Sixth-RHS-Ross" to="Ross-Sixth-Seventh"/>
<trip type="noVar" depart="11" id="Ross-Fourth-Forbes.299" from="Ross-Fourth-Forbes" to="Fifth-WilliamPenn-Smithfield"/>
<trip type="noVar" depart="12" id="Forbes-RHS-Ross.332" from="Forbes-RHS-Ross" to="Forbes-WilliamPenn-Smithfield"/>
<trip type="noVar" depart="12" id="Ross-Fourth-Forbes.183" from="Ross-Fourth-Forbes" to="Ross-Sixth-Seventh"/>
<trip type="noVar" depart="13" id="Sixth-Smithfield-WilliamPenn.462" from="Sixth-Smithfield-WilliamPenn" to="Sixth-Ross-RHS"/>
<trip type="noVar" depart="13" id="Oliver-Smithfield-WilliamPenn.243" from="Oliver-Smithfield-WilliamPenn" to="Fifth-WilliamPenn-Smithfield"/>
<trip type="noVar" depart="13" id="Grant-Fourth-Forbes.380" from="Grant-Fourth-Forbes" to="Grant-Sixth-Seventh"/>
<trip type="noVar" depart="13" id="Forbes-RHS-Ross.113" from="Forbes-RHS-Ross" to="Forbes-WilliamPenn-Smithfield"/>
<trip type="noVar" depart="13" id="Forbes-RHS-Ross.479" from="Forbes-RHS-Ross" to="WilliamPenn-Forbes-Fourth"/>
<trip type="noVar" depart="14" id="Oliver-Smithfield-WilliamPenn.46" from="Oliver-Smithfield-WilliamPenn" to="Grant-Sixth-Seventh"/>
<trip type="noVar" depart="14" id="Oliver-Smithfield-WilliamPenn.103" from="Oliver-Smithfield-WilliamPenn" to="Grant-Sixth-Seventh"/>
<trip type="noVar" depart="14" id="Grant-Fourth-Forbes.55" from="Grant-Fourth-Forbes" to="Grant-Sixth-Seventh"/>
<trip type="noVar" depart="14" id="Ross-Seventh-Sixth.301" from="Ross-Seventh-Sixth" to="Forbes-Ross-RHS"/>
<trip type="noVar" depart="15" id="WilliamPenn-Seventh-Sixth.232" from="WilliamPenn-Seventh-Sixth" to="Sixth-WilliamPenn-Smithfield"/>
<trip type="noVar" depart="15" id="Oliver-Smithfield-WilliamPenn.347" from="Oliver-Smithfield-WilliamPenn" to="Grant-Sixth-Seventh"/>
<trip type="noVar" depart="15" id="Oliver-Smithfield-WilliamPenn.378" from="Oliver-Smithfield-WilliamPenn" to="Grant-Sixth-Seventh"/>
<trip type="noVar" depart="15" id="Fifth-RHS-Ross.207" from="Fifth-RHS-Ross" to="Fifth-WilliamPenn-Smithfield"/>
<trip type="noVar" depart="18" id="Grant-Seventh-Sixth.84" from="Grant-Seventh-Sixth" to="Forbes-WilliamPenn-Smithfield"/>
<trip type="noVar" depart="19" id="Grant-Seventh-Sixth.26" from="Grant-Seventh-Sixth" to="Grant-Forbes-Fourth"/>
<trip type="noVar" depart="20" id="Grant-Fourth-Forbes.419" from="Grant-Fourth-Forbes" to="Fifth-WilliamPenn-Smithfield"/>
<trip type="noVar" depart="22" id="Forbes-RHS-Ross.353" from="Forbes-RHS-Ross" to="Sixth-WilliamPenn-Smithfield"/>
<trip type="noVar" depart="24" id="Forbes-RHS-Ross.173" from="Forbes-RHS-Ross" to="Grant-Forbes-Fourth"/>
<trip type="noVar" depart="25" id="Grant-Seventh-Sixth.414" from="Grant-Seventh-Sixth" to="Grant-Forbes-Fourth"/>
<trip type="noVar" depart="25" id="Fifth-RHS-Ross.350" from="Fifth-RHS-Ross" to="Grant-Sixth-Seventh"/>
<trip type="noVar" depart="26" id="Sixth-Smithfield-WilliamPenn.98" from="Sixth-Smithfield-WilliamPenn" to="Sixth-Ross-RHS"/>
<trip type="noVar" depart="26" id="Grant-Fourth-Forbes.115" from="Grant-Fourth-Forbes" to="Forbes-Ross-RHS"/>
<trip type="noVar" depart="26" id="Ross-Seventh-Sixth.129" from="Ross-Seventh-Sixth" to="Sixth-WilliamPenn-Smithfield"/>
<trip type="noVar" depart="26" id="Sixth-RHS-Ross.147" from="Sixth-RHS-Ross" to="Fifth-Ross-RHS"/>
<trip type="noVar" depart="26" id="Fifth-RHS-Ross.240" from="Fifth-RHS-Ross" to="Grant-Forbes-Fourth"/>
<trip type="noVar" depart="27" id="Forbes-Smithfield-WilliamPenn.29" from="Forbes-Smithfield-WilliamPenn" to="WilliamPenn-Forbes-Fourth"/>
<trip type="noVar" depart="27" id="Ross-Seventh-Sixth.275" from="Ross-Seventh-Sixth" to="Ross-Sixth-Seventh"/>
<trip type="noVar" depart="28" id="Grant-Seventh-Sixth.640" from="Grant-Seventh-Sixth" to="WilliamPenn-Forbes-Fourth"/>
<trip type="noVar" depart="28" id="Ross-Fourth-Forbes.462" from="Ross-Fourth-Forbes" to="Fifth-Ross-RHS"/>
<trip type="noVar" depart="29" id="Ross-Seventh-Sixth.150" from="Ross-Seventh-Sixth" to="Ross-Forbes-Fourth"/>
<trip type="noVar" depart="29" id="Fifth-RHS-Ross.377" from="Fifth-RHS-Ross" to="Fifth-WilliamPenn-Smithfield"/>
<trip type="noVar" depart="29" id="Forbes-RHS-Ross.286" from="Forbes-RHS-Ross" to="WilliamPenn-Forbes-Fourth"/>
<trip type="noVar" depart="29" id="Ross-Fourth-Forbes.578" from="Ross-Fourth-Forbes" to="Grant-Forbes-Fourth"/>
<trip type="noVar" depart="30" id="Grant-Seventh-Sixth.331" from="Grant-Seventh-Sixth" to="Sixth-Ross-RHS"/>
<trip type="noVar" depart="30" id="Sixth-RHS-Ross.208" from="Sixth-RHS-Ross" to="Ross-Sixth-Seventh"/>
<trip type="noVar" depart="30" id="Forbes-RHS-Ross.624" from="Forbes-RHS-Ross" to="Ross-Forbes-Fourth"/>
<trip type="noVar" depart="32" id="Grant-Seventh-Sixth.580" from="Grant-Seventh-Sixth" to="Grant-Forbes-Fourth"/>
<trip type="noVar" depart="32" id="Sixth-RHS-Ross.9" from="Sixth-RHS-Ross" to="Sixth-Ross-RHS"/>
<trip type="noVar" depart="32" id="Forbes-RHS-Ross.627" from="Forbes-RHS-Ross" to="Ross-Forbes-Fourth"/>
<trip type="noVar" depart="34" id="WilliamPenn-Seventh-Sixth.255" from="WilliamPenn-Seventh-Sixth" to="Sixth-WilliamPenn-Smithfield"/>
<trip type="noVar" depart="34" id="Forbes-RHS-Ross.53" from="Forbes-RHS-Ross" to="WilliamPenn-Forbes-Fourth"/>
<trip type="noVar" depart="34" id="Ross-Fourth-Forbes.17" from="Ross-Fourth-Forbes" to="Forbes-WilliamPenn-Smithfield"/>
<trip type="noVar" depart="35" id="Fifth-RHS-Ross.311" from="Fifth-RHS-Ross" to="Grant-Forbes-Fourth"/>
<trip type="noVar" depart="36" id="Oliver-Smithfield-WilliamPenn.367" from="Oliver-Smithfield-WilliamPenn" to="Grant-Forbes-Fourth"/>
<trip type="noVar" depart="36" id="Ross-Fourth-Forbes.418" from="Ross-Fourth-Forbes" to="Grant-Sixth-Seventh"/>
<trip type="noVar" depart="37" id="Oliver-Smithfield-WilliamPenn.217" from="Oliver-Smithfield-WilliamPenn" to="WilliamPenn-Forbes-Fourth"/>
<trip type="noVar" depart="37" id="Fifth-RHS-Ross.263" from="Fifth-RHS-Ross" to="Grant-Forbes-Fourth"/>
<trip type="noVar" depart="37" id="Ross-Fourth-Forbes.304" from="Ross-Fourth-Forbes" to="Sixth-WilliamPenn-Smithfield"/>
<trip type="noVar" depart="38" id="Grant-Seventh-Sixth.698" from="Grant-Seventh-Sixth" to="WilliamPenn-Forbes-Fourth"/>
<trip type="noVar" depart="38" id="WilliamPenn-Seventh-Sixth.116" from="WilliamPenn-Seventh-Sixth" to="Sixth-WilliamPenn-Smithfield"/>
<trip type="noVar" depart="40" id="Oliver-Smithfield-WilliamPenn.150" from="Oliver-Smithfield-WilliamPenn" to="Fifth-WilliamPenn-Smithfield"/>
<trip type="noVar" depart="40" id="Fifth-Smithfield-WilliamPenn.42" from="Fifth-Smithfield-WilliamPenn" to="Grant-Sixth-Seventh"/>
<trip type="noVar" depart="40" id="Forbes-RHS-Ross.101" from="Forbes-RHS-Ross" to="Forbes-WilliamPenn-Smithfield"/>
<trip type="noVar" depart="40" id="Ross-Fourth-Forbes.362" from="Ross-Fourth-Forbes" to="Forbes-Ross-RHS"/>
<trip type="noVar" depart="41" id="Grant-Seventh-Sixth.718" from="Grant-Seventh-Sixth" to="Grant-Forbes-Fourth"/>
<trip type="noVar" depart="41" id="Oliver-Smithfield-WilliamPenn.151" from="Oliver-Smithfield-WilliamPenn" to="Grant-Forbes-Fourth"/>
<trip type="noVar" depart="41" id="Ross-Seventh-Sixth.688" from="Ross-Seventh-Sixth" to="Fifth-Ross-RHS"/>
<trip type="noVar" depart="44" id="Grant-Seventh-Sixth.447" from="Grant-Seventh-Sixth" to="Sixth-Ross-RHS"/>
<trip type="noVar" depart="44" id="Grant-Seventh-Sixth.688" from="Grant-Seventh-Sixth" to="Forbes-Ross-RHS"/>
<trip type="noVar" depart="44" id="Oliver-Smithfield-WilliamPenn.130" from="Oliver-Smithfield-WilliamPenn" to="WilliamPenn-Forbes-Fourth"/>
<trip type="noVar" depart="45" id="Grant-Seventh-Sixth.474" from="Grant-Seventh-Sixth" to="Grant-Forbes-Fourth"/>
<trip type="noVar" depart="45" id="Sixth-Smithfield-WilliamPenn.152" from="Sixth-Smithfield-WilliamPenn" to="Sixth-Ross-RHS"/>
<trip type="noVar" depart="45" id="Sixth-RHS-Ross.435" from="Sixth-RHS-Ross" to="Grant-Sixth-Seventh"/>
<trip type="noVar" depart="46" id="Grant-Seventh-Sixth.95" from="Grant-Seventh-Sixth" to="Ross-Sixth-Seventh"/>
<trip type="noVar" depart="47" id="Sixth-Smithfield-WilliamPenn.390" from="Sixth-Smithfield-WilliamPenn" to="Sixth-Ross-RHS"/>
<trip type="noVar" depart="47" id="Ross-Seventh-Sixth.539" from="Ross-Seventh-Sixth" to="Grant-Forbes-Fourth"/>
<trip type="noVar" depart="47" id="Sixth-RHS-Ross.389" from="Sixth-RHS-Ross" to="Grant-Sixth-Seventh"/>
<trip type="noVar" depart="48" id="Grant-Fourth-Forbes.347" from="Grant-Fourth-Forbes" to="Grant-Sixth-Seventh"/>
<trip type="noVar" depart="48" id="Sixth-RHS-Ross.324" from="Sixth-RHS-Ross" to="Grant-Forbes-Fourth"/>
<trip type="noVar" depart="48" id="Fifth-RHS-Ross.361" from="Fifth-RHS-Ross" to="Grant-Sixth-Seventh"/>
<trip type="noVar" depart="49" id="Grant-Seventh-Sixth.408" from="Grant-Seventh-Sixth" to="Ross-Forbes-Fourth"/>
<trip type="noVar" depart="49" id="Grant-Fourth-Forbes.155" from="Grant-Fourth-Forbes" to="Grant-Sixth-Seventh"/>
<trip type="noVar" depart="49" id="Fifth-RHS-Ross.134" from="Fifth-RHS-Ross" to="Fifth-WilliamPenn-Smithfield"/>
<trip type="noVar" depart="50" id="Fifth-Smithfield-WilliamPenn.87" from="Fifth-Smithfield-WilliamPenn" to="Fifth-Ross-RHS"/>
<trip type="noVar" depart="50" id="Sixth-RHS-Ross.31" from="Sixth-RHS-Ross" to="Grant-Sixth-Seventh"/>
<trip type="noVar" depart="50" id="Fifth-RHS-Ross.8" from="Fifth-RHS-Ross" to="Fifth-WilliamPenn-Smithfield"/>
<trip type="noVar" depart="51" id="Forbes-Smithfield-WilliamPenn.43" from="Forbes-Smithfield-WilliamPenn" to="WilliamPenn-Forbes-Fourth"/>
<trip type="noVar" depart="52" id="Sixth-Smithfield-WilliamPenn.295" from="Sixth-Smithfield-WilliamPenn" to="Ross-Sixth-Seventh"/>
<trip type="noVar" depart="55" id="Ross-Seventh-Sixth.332" from="Ross-Seventh-Sixth" to="WilliamPenn-Forbes-Fourth"/>
<trip type="noVar" depart="56" id="Fifth-RHS-Ross.31" from="Fifth-RHS-Ross" to="Ross-Forbes-Fourth"/>
<trip type="noVar" depart="57" id="Grant-Fifth-Oliver.27" from="Grant-Fifth-Oliver" to="Grant-Sixth-Seventh"/>
<trip type="noVar" depart="57" id="Grant-Fourth-Forbes.539" from="Grant-Fourth-Forbes" to="Sixth-WilliamPenn-Smithfield"/>
<trip type="noVar" depart="57" id="Ross-Seventh-Sixth.493" from="Ross-Seventh-Sixth" to="Fifth-WilliamPenn-Smithfield"/>
<trip type="noVar" depart="57" id="Sixth-RHS-Ross.120" from="Sixth-RHS-Ross" to="Grant-Sixth-Seventh"/>
<trip type="noVar" depart="58" id="Ross-Seventh-Sixth.84" from="Ross-Seventh-Sixth" to="Sixth-WilliamPenn-Smithfield"/>
<trip type="noVar" depart="58" id="Sixth-RHS-Ross.305" from="Sixth-RHS-Ross" to="Grant-Forbes-Fourth"/>
<trip type="noVar" depart="60" id="Forbes-RHS-Ross.374" from="Forbes-RHS-Ross" to="WilliamPenn-Forbes-Fourth"/>
<trip type="noVar" depart="61" id="Ross-Seventh-Sixth.109" from="Ross-Seventh-Sixth" to="Ross-Forbes-Fourth"/>
<trip type="noVar" depart="62" id="Oliver-Smithfield-WilliamPenn.220" from="Oliver-Smithfield-WilliamPenn" to="Grant-Sixth-Seventh"/>
<trip type="noVar" depart="62" id="Fifth-Smithfield-WilliamPenn.106" from="Fifth-Smithfield-WilliamPenn" to="Ross-Sixth-Seventh"/>
<trip type="noVar" depart="62" id="Grant-Fourth-Forbes.374" from="Grant-Fourth-Forbes" to="Grant-Sixth-Seventh"/>
<trip type="noVar" depart="63" id="Forbes-RHS-Ross.453" from="Forbes-RHS-Ross" to="Grant-Forbes-Fourth"/>
<trip type="noVar" depart="64" id="Sixth-Smithfield-WilliamPenn.135" from="Sixth-Smithfield-WilliamPenn" to="Ross-Sixth-Seventh"/>
<trip type="noVar" depart="64" id="Grant-Fourth-Forbes.62" from="Grant-Fourth-Forbes" to="Grant-Sixth-Seventh"/>
<trip type="noVar" depart="64" id="Ross-Fourth-Forbes.369" from="Ross-Fourth-Forbes" to="Forbes-Ross-RHS"/>
<trip type="noVar" depart="65" id="Sixth-RHS-Ross.503" from="Sixth-RHS-Ross" to="Fifth-Ross-RHS"/>
<trip type="noVar" depart="65" id="Forbes-RHS-Ross.578" from="Forbes-RHS-Ross" to="WilliamPenn-Forbes-Fourth"/>
<trip type="noVar" depart="66" id="Ross-Seventh-Sixth.481" from="Ross-Seventh-Sixth" to="Grant-Forbes-Fourth"/>
<trip type="noVar" depart="66" id="Sixth-RHS-Ross.368" from="Sixth-RHS-Ross" to="Ross-Forbes-Fourth"/>
<trip type="noVar" depart="67" id="Ross-Seventh-Sixth.37" from="Ross-Seventh-Sixth" to="Ross-Forbes-Fourth"/>
<trip type="noVar" depart="67" id="Forbes-RHS-Ross.273" from="Forbes-RHS-Ross" to="Forbes-WilliamPenn-Smithfield"/>
<trip type="noVar" depart="69" id="WilliamPenn-Seventh-Sixth.191" from="WilliamPenn-Seventh-Sixth" to="Sixth-WilliamPenn-Smithfield"/>
<trip type="noVar" depart="69" id="Oliver-Smithfield-WilliamPenn.295" from="Oliver-Smithfield-WilliamPenn" to="WilliamPenn-Forbes-Fourth"/>
<trip type="noVar" depart="70" id="Forbes-RHS-Ross.377" from="Forbes-RHS-Ross" to="Grant-Forbes-Fourth"/>
<trip type="noVar" depart="70" id="Ross-Fourth-Forbes.7" from="Ross-Fourth-Forbes" to="Grant-Forbes-Fourth"/>
<trip type="noVar" depart="71" id="Ross-Seventh-Sixth.232" from="Ross-Seventh-Sixth" to="Sixth-Ross-RHS"/>
<trip type="noVar" depart="71" id="Fifth-RHS-Ross.415" from="Fifth-RHS-Ross" to="Grant-Forbes-Fourth"/>
<trip type="noVar" depart="73" id="WilliamPenn-Seventh-Sixth.368" from="WilliamPenn-Seventh-Sixth" to="WilliamPenn-Forbes-Fourth"/>
<trip type="noVar" depart="73" id="Sixth-Smithfield-WilliamPenn.283" from="Sixth-Smithfield-WilliamPenn" to="Grant-Forbes-Fourth"/>
<trip type="noVar" depart="73" id="Ross-Seventh-Sixth.227" from="Ross-Seventh-Sixth" to="Ross-Forbes-Fourth"/>
<trip type="noVar" depart="73" id="Sixth-RHS-Ross.272" from="Sixth-RHS-Ross" to="Sixth-WilliamPenn-Smithfield"/>
<trip type="noVar" depart="73" id="Fifth-RHS-Ross.411" from="Fifth-RHS-Ross" to="Fifth-WilliamPenn-Smithfield"/>
<trip type="noVar" depart="73" id="Ross-Fourth-Forbes.72" from="Ross-Fourth-Forbes" to="Forbes-Ross-RHS"/>
<trip type="noVar" depart="75" id="Grant-Seventh-Sixth.109" from="Grant-Seventh-Sixth" to="Ross-Sixth-Seventh"/>
<trip type="noVar" depart="75" id="Grant-Seventh-Sixth.526" from="Grant-Seventh-Sixth" to="Grant-Forbes-Fourth"/>
<trip type="noVar" depart="75" id="Fifth-Smithfield-WilliamPenn.13" from="Fifth-Smithfield-WilliamPenn" to="Fifth-Ross-RHS"/>
<trip type="noVar" depart="75" id="Fifth-Smithfield-WilliamPenn.65" from="Fifth-Smithfield-WilliamPenn" to="Sixth-WilliamPenn-Smithfield"/>
<trip type="noVar" depart="76" id="WilliamPenn-Seventh-Sixth.26" from="WilliamPenn-Seventh-Sixth" to="Sixth-Ross-RHS"/>
<trip type="noVar" depart="76" id="Oliver-Smithfield-WilliamPenn.340" from="Oliver-Smithfield-WilliamPenn" to="Fifth-WilliamPenn-Smithfield"/>
<trip type="noVar" depart="76" id="Ross-Seventh-Sixth.164" from="Ross-Seventh-Sixth" to="Grant-Forbes-Fourth"/>
<trip type="noVar" depart="77" id="Grant-Fourth-Forbes.564" from="Grant-Fourth-Forbes" to="Grant-Sixth-Seventh"/>
<trip type="noVar" depart="77" id="Fifth-RHS-Ross.167" from="Fifth-RHS-Ross" to="Fifth-WilliamPenn-Smithfield"/>
<trip type="noVar" depart="78" id="Forbes-RHS-Ross.263" from="Forbes-RHS-Ross" to="Forbes-WilliamPenn-Smithfield"/>
<trip type="noVar" depart="79" id="Oliver-Smithfield-WilliamPenn.209" from="Oliver-Smithfield-WilliamPenn" to="Grant-Sixth-Seventh"/>
<trip type="noVar" depart="79" id="Grant-Fourth-Forbes.175" from="Grant-Fourth-Forbes" to="Forbes-Ross-RHS"/>
<trip type="noVar" depart="80" id="Sixth-RHS-Ross.544" from="Sixth-RHS-Ross" to="Sixth-WilliamPenn-Smithfield"/>
<trip type="noVar" depart="83" id="Ross-Seventh-Sixth.292" from="Ross-Seventh-Sixth" to="Sixth-Ross-RHS"/>
<trip type="noVar" depart="86" id="Grant-Seventh-Sixth.277" from="Grant-Seventh-Sixth" to="WilliamPenn-Forbes-Fourth"/>
<trip type="noVar" depart="87" id="WilliamPenn-Seventh-Sixth.129" from="WilliamPenn-Seventh-Sixth" to="Sixth-WilliamPenn-Smithfield"/>
<trip type="noVar" depart="87" id="Fifth-RHS-Ross.402" from="Fifth-RHS-Ross" to="WilliamPenn-Forbes-Fourth"/>
<trip type="noVar" depart="87" id="Forbes-RHS-Ross.349" from="Forbes-RHS-Ross" to="Ross-Forbes-Fourth"/>
<trip type="noVar" depart="87" id="Ross-Fourth-Forbes.630" from="Ross-Fourth-Forbes" to="Forbes-Ross-RHS"/>
<trip type="noVar" depart="88" id="Ross-Seventh-Sixth.7" from="Ross-Seventh-Sixth" to="Sixth-Ross-RHS"/>
<trip type="noVar" depart="88" id="Ross-Seventh-Sixth.337" from="Ross-Seventh-Sixth" to="Ross-Forbes-Fourth"/>
<trip type="noVar" depart="90" id="Grant-Seventh-Sixth.533" from="Grant-Seventh-Sixth" to="Grant-Forbes-Fourth"/>
<trip type="noVar" depart="91" id="Forbes-RHS-Ross.181" from="Forbes-RHS-Ross" to="Ross-Forbes-Fourth"/>
<trip type="noVar" depart="92" id="Grant-Fifth-Oliver.40" from="Grant-Fifth-Oliver" to="Grant-Sixth-Seventh"/>
<trip type="noVar" depart="92" id="Grant-Fourth-Forbes.543" from="Grant-Fourth-Forbes" to="Fifth-WilliamPenn-Smithfield"/>
<trip type="noVar" depart="93" id="Oliver-Smithfield-WilliamPenn.393" from="Oliver-Smithfield-WilliamPenn" to="WilliamPenn-Forbes-Fourth"/>
<trip type="noVar" depart="93" id="Grant-Fourth-Forbes.601" from="Grant-Fourth-Forbes" to="Ross-Forbes-Fourth"/>
<trip type="noVar" depart="95" id="Ross-Fourth-Forbes.11" from="Ross-Fourth-Forbes" to="Ross-Sixth-Seventh"/>
<trip type="noVar" depart="96" id="Grant-Seventh-Sixth.634" from="Grant-Seventh-Sixth" to="Grant-Forbes-Fourth"/>
<trip type="noVar" depart="96" id="WilliamPenn-Seventh-Sixth.220" from="WilliamPenn-Seventh-Sixth" to="Ross-Sixth-Seventh"/>
<trip type="noVar" depart="97" id="Ross-Fourth-Forbes.19" from="Ross-Fourth-Forbes" to="Forbes-Ross-RHS"/>
<trip type="noVar" depart="98" id="Fifth-RHS-Ross.244" from="Fifth-RHS-Ross" to="Fifth-WilliamPenn-Smithfield"/>
<trip type="noVar" depart="101" id="Fifth-RHS-Ross.104" from="Fifth-RHS-Ross" to="Grant-Forbes-Fourth"/>
<trip type="noVar" depart="101" id="Ross-Fourth-Forbes.569" from="Ross-Fourth-Forbes" to="Ross-Sixth-Seventh"/>
<trip type="noVar" depart="102" id="Grant-Fourth-Forbes.371" from="Grant-Fourth-Forbes" to="Grant-Sixth-Seventh"/>
<trip type="noVar" depart="102" id="Grant-Fourth-Forbes.647" from="Grant-Fourth-Forbes" to="Forbes-WilliamPenn-Smithfield"/>
<trip type="noVar" depart="103" id="Sixth-Smithfield-WilliamPenn.307" from="Sixth-Smithfield-WilliamPenn" to="Fifth-WilliamPenn-Smithfield"/>
<trip type="noVar" depart="103" id="Ross-Seventh-Sixth.641" from="Ross-Seventh-Sixth" to="Ross-Forbes-Fourth"/>
<trip type="noVar" depart="104" id="Sixth-Smithfield-WilliamPenn.64" from="Sixth-Smithfield-WilliamPenn" to="WilliamPenn-Forbes-Fourth"/>
<trip type="noVar" depart="105" id="WilliamPenn-Seventh-Sixth.299" from="WilliamPenn-Seventh-Sixth" to="Grant-Sixth-Seventh"/>
<trip type="noVar" depart="105" id="Fifth-RHS-Ross.249" from="Fifth-RHS-Ross" to="Ross-Sixth-Seventh"/>
<trip type="noVar" depart="105" id="Ross-Fourth-Forbes.647" from="Ross-Fourth-Forbes" to="Ross-Sixth-Seventh"/>
<trip type="noVar" depart="106" id="Sixth-Smithfield-WilliamPenn.1" from="Sixth-Smithfield-WilliamPenn" to="Grant-Sixth-Seventh"/>
<trip type="noVar" depart="107" id="Grant-Seventh-Sixth.13" from="Grant-Seventh-Sixth" to="WilliamPenn-Forbes-Fourth"/>
<trip type="noVar" depart="107" id="WilliamPenn-Seventh-Sixth.331" from="WilliamPenn-Seventh-Sixth" to="Sixth-WilliamPenn-Smithfield"/>
<trip type="noVar" depart="107" id="Sixth-RHS-Ross.63" from="Sixth-RHS-Ross" to="Fifth-WilliamPenn-Smithfield"/>
<trip type="noVar" depart="109" id="Oliver-Smithfield-WilliamPenn.308" from="Oliver-Smithfield-WilliamPenn" to="WilliamPenn-Forbes-Fourth"/>
<trip type="noVar" depart="109" id="Oliver-Smithfield-WilliamPenn.397" from="Oliver-Smithfield-WilliamPenn" to="WilliamPenn-Forbes-Fourth"/>
<trip type="noVar" depart="109" id="Sixth-RHS-Ross.264" from="Sixth-RHS-Ross" to="Ross-Sixth-Seventh"/>
<trip type="noVar" depart="111" id="Grant-Seventh-Sixth.278" from="Grant-Seventh-Sixth" to="WilliamPenn-Forbes-Fourth"/>
<trip type="noVar" depart="111" id="Grant-Seventh-Sixth.699" from="Grant-Seventh-Sixth" to="WilliamPenn-Forbes-Fourth"/>
<trip type="noVar" depart="111" id="Sixth-Smithfield-WilliamPenn.146" from="Sixth-Smithfield-WilliamPenn" to="Sixth-Ross-RHS"/>
<trip type="noVar" depart="111" id="Grant-Fourth-Forbes.246" from="Grant-Fourth-Forbes" to="Grant-Sixth-Seventh"/>
<trip type="noVar" depart="112" id="Ross-Seventh-Sixth.348" from="Ross-Seventh-Sixth" to="Fifth-Ross-RHS"/>
<trip type="noVar" depart="112" id="Sixth-RHS-Ross.133" from="Sixth-RHS-Ross" to="Grant-Sixth-Seventh"/>
<trip type="noVar" depart="112" id="Sixth-RHS-Ross.175" from="Sixth-RHS-Ross" to="Ross-Sixth-Seventh"/>
<trip type="noVar" depart="113" id="Grant-Fourth-Forbes.458" from="Grant-Fourth-Forbes" to="Fifth-WilliamPenn-Smithfield"/>
<trip type="noVar" depart="114" id="WilliamPenn-Seventh-Sixth.130" from="WilliamPenn-Seventh-Sixth" to="Forbes-WilliamPenn-Smithfield"/>
<trip type="noVar" depart="114" id="Sixth-Smithfield-WilliamPenn.38" from="Sixth-Smithfield-WilliamPenn" to="Sixth-Ross-RHS"/>
<trip type="noVar" depart="114" id="Fifth-RHS-Ross.340" from="Fifth-RHS-Ross" to="Ross-Sixth-Seventh"/>
<trip type="noVar" depart="115" id="Oliver-Smithfield-WilliamPenn.80" from="Oliver-Smithfield-WilliamPenn" to="WilliamPenn-Forbes-Fourth"/>
<trip type="noVar" depart="116" id="Sixth-RHS-Ross.152" from="Sixth-RHS-Ross" to="Ross-Sixth-Seventh"/>
<trip type="noVar" depart="116" id="Forbes-RHS-Ross.11" from="Forbes-RHS-Ross" to="Forbes-WilliamPenn-Smithfield"/>
<trip type="noVar" depart="116" id="Ross-Fourth-Forbes.469" from="Ross-Fourth-Forbes" to="Forbes-Ross-RHS"/>
<trip type="noVar" depart="119" id="Grant-Fourth-Forbes.116" from="Grant-Fourth-Forbes" to="Fifth-Ross-RHS"/>
<trip type="noVar" depart="119" id="Grant-Fourth-Forbes.147" from="Grant-Fourth-Forbes" to="Grant-Sixth-Seventh"/>
<trip type="noVar" depart="120" id="Grant-Seventh-Sixth.195" from="Grant-Seventh-Sixth" to="WilliamPenn-Forbes-Fourth"/>
<trip type="noVar" depart="121" id="Grant-Fourth-Forbes.558" from="Grant-Fourth-Forbes" to="Sixth-Ross-RHS"/>
<trip type="noVar" depart="121" id="Forbes-RHS-Ross.221" from="Forbes-RHS-Ross" to="WilliamPenn-Forbes-Fourth"/>
<trip type="noVar" depart="121" id="Forbes-RHS-Ross.524" from="Forbes-RHS-Ross" to="Forbes-WilliamPenn-Smithfield"/>
<trip type="noVar" depart="122" id="Grant-Seventh-Sixth.389" from="Grant-Seventh-Sixth" to="Sixth-Ross-RHS"/>
<trip type="noVar" depart="122" id="Grant-Fourth-Forbes.122" from="Grant-Fourth-Forbes" to="Forbes-Ross-RHS"/>
<trip type="noVar" depart="122" id="Grant-Fourth-Forbes.292" from="Grant-Fourth-Forbes" to="Grant-Sixth-Seventh"/>
<trip type="noVar" depart="123" id="WilliamPenn-Seventh-Sixth.305" from="WilliamPenn-Seventh-Sixth" to="Sixth-Ross-RHS"/>
<trip type="noVar" depart="123" id="Fifth-Smithfield-WilliamPenn.48" from="Fifth-Smithfield-WilliamPenn" to="Sixth-Ross-RHS"/>
<trip type="noVar" depart="124" id="Grant-Fourth-Forbes.296" from="Grant-Fourth-Forbes" to="Grant-Sixth-Seventh"/>
<trip type="noVar" depart="125" id="Forbes-RHS-Ross.95" from="Forbes-RHS-Ross" to="Grant-Forbes-Fourth"/>
<trip type="noVar" depart="127" id="Grant-Seventh-Sixth.600" from="Grant-Seventh-Sixth" to="Grant-Forbes-Fourth"/>
<trip type="noVar" depart="128" id="Grant-Fourth-Forbes.480" from="Grant-Fourth-Forbes" to="Grant-Sixth-Seventh"/>
<trip type="noVar" depart="128" id="Sixth-RHS-Ross.320" from="Sixth-RHS-Ross" to="Grant-Sixth-Seventh"/>
<trip type="noVar" depart="129" id="Grant-Fourth-Forbes.210" from="Grant-Fourth-Forbes" to="Sixth-Ross-RHS"/>
<trip type="noVar" depart="130" id="WilliamPenn-Seventh-Sixth.178" from="WilliamPenn-Seventh-Sixth" to="WilliamPenn-Forbes-Fourth"/>
<trip type="noVar" depart="130" id="Forbes-Smithfield-WilliamPenn.17" from="Forbes-Smithfield-WilliamPenn" to="WilliamPenn-Forbes-Fourth"/>
<trip type="noVar" depart="130" id="Forbes-RHS-Ross.404" from="Forbes-RHS-Ross" to="Grant-Forbes-Fourth"/>
<trip type="noVar" depart="131" id="Grant-Fourth-Forbes.170" from="Grant-Fourth-Forbes" to="WilliamPenn-Forbes-Fourth"/>
<trip type="noVar" depart="131" id="Forbes-RHS-Ross.300" from="Forbes-RHS-Ross" to="Grant-Forbes-Fourth"/>
<trip type="noVar" depart="132" id="Sixth-RHS-Ross.310" from="Sixth-RHS-Ross" to="Grant-Sixth-Seventh"/>
<trip type="noVar" depart="132" id="Ross-Fourth-Forbes.566" from="Ross-Fourth-Forbes" to="Forbes-Ross-RHS"/>
<trip type="noVar" depart="133" id="WilliamPenn-Seventh-Sixth.378" from="WilliamPenn-Seventh-Sixth" to="WilliamPenn-Forbes-Fourth"/>
<trip type="noVar" depart="133" id="Grant-Fourth-Forbes.138" from="Grant-Fourth-Forbes" to="Sixth-Ross-RHS"/>
<trip type="noVar" depart="133" id="Ross-Seventh-Sixth.445" from="Ross-Seventh-Sixth" to="Sixth-Ross-RHS"/>
<trip type="noVar" depart="134" id="Oliver-Smithfield-WilliamPenn.126" from="Oliver-Smithfield-WilliamPenn" to="Grant-Sixth-Seventh"/>
<trip type="noVar" depart="134" id="Ross-Seventh-Sixth.370" from="Ross-Seventh-Sixth" to="Grant-Forbes-Fourth"/>
<trip type="noVar" depart="135" id="Oliver-Smithfield-WilliamPenn.61" from="Oliver-Smithfield-WilliamPenn" to="Sixth-Ross-RHS"/>
<trip type="noVar" depart="135" id="Sixth-RHS-Ross.122" from="Sixth-RHS-Ross" to="Grant-Sixth-Seventh"/>
<trip type="noVar" depart="135" id="Forbes-RHS-Ross.179" from="Forbes-RHS-Ross" to="Forbes-WilliamPenn-Smithfield"/>
<trip type="noVar" depart="138" id="Grant-Seventh-Sixth.283" from="Grant-Seventh-Sixth" to="WilliamPenn-Forbes-Fourth"/>
<trip type="noVar" depart="138" id="Grant-Fourth-Forbes.11" from="Grant-Fourth-Forbes" to="Fifth-Ross-RHS"/>
<trip type="noVar" depart="138" id="Grant-Fourth-Forbes.531" from="Grant-Fourth-Forbes" to="Sixth-Ross-RHS"/>
<trip type="noVar" depart="138" id="Fifth-RHS-Ross.438" from="Fifth-RHS-Ross" to="Forbes-WilliamPenn-Smithfield"/>
<trip type="noVar" depart="139" id="Grant-Seventh-Sixth.49" from="Grant-Seventh-Sixth" to="Grant-Forbes-Fourth"/>
<trip type="noVar" depart="139" id="Grant-Seventh-Sixth.138" from="Grant-Seventh-Sixth" to="Grant-Forbes-Fourth"/>
<trip type="noVar" depart="139" id="Grant-Seventh-Sixth.256" from="Grant-Seventh-Sixth" to="Forbes-WilliamPenn-Smithfield"/>
<trip type="noVar" depart="139" id="WilliamPenn-Seventh-Sixth.119" from="WilliamPenn-Seventh-Sixth" to="Grant-Sixth-Seventh"/>
<trip type="noVar" depart="141" id="Grant-Seventh-Sixth.657" from="Grant-Seventh-Sixth" to="Grant-Forbes-Fourth"/>
<trip type="noVar" depart="141" id="WilliamPenn-Seventh-Sixth.4" from="WilliamPenn-Seventh-Sixth" to="Ross-Sixth-Seventh"/>
<trip type="noVar" depart="141" id="WilliamPenn-Seventh-Sixth.126" from="WilliamPenn-Seventh-Sixth" to="WilliamPenn-Forbes-Fourth"/>
<trip type="noVar" depart="141" id="WilliamPenn-Seventh-Sixth.342" from="WilliamPenn-Seventh-Sixth" to="Sixth-Ross-RHS"/>
<trip type="noVar" depart="141" id="Grant-Fourth-Forbes.473" from="Grant-Fourth-Forbes" to="Forbes-Ross-RHS"/>
<trip type="noVar" depart="141" id="Ross-Seventh-Sixth.622" from="Ross-Seventh-Sixth" to="Ross-Forbes-Fourth"/>
<trip type="noVar" depart="142" id="Ross-Seventh-Sixth.395" from="Ross-Seventh-Sixth" to="Grant-Sixth-Seventh"/>
<trip type="noVar" depart="142" id="Sixth-RHS-Ross.203" from="Sixth-RHS-Ross" to="Grant-Sixth-Seventh"/>
<trip type="noVar" depart="142" id="Sixth-RHS-Ross.399" from="Sixth-RHS-Ross" to="WilliamPenn-Forbes-Fourth"/>
<trip type="noVar" depart="142" id="Sixth-RHS-Ross.481" from="Sixth-RHS-Ross" to="Grant-Forbes-Fourth"/>
<trip type="noVar" depart="142" id="Ross-Fourth-Forbes.224" from="Ross-Fourth-Forbes" to="Sixth-Ross-RHS"/>