<?xml version="1.0" encoding="UTF-8"?>
<routes xmlns:xsi="http://www.w3.org/2001/XMLSchema-instance" xsi:noNamespaceSchemaLocation="http://sumo.dlr.de/xsd/routes_file.xsd">

<vType id="noVar" speedFactor="1.0" speedDev="0.0"/>
<trip type="noVar" depart="0" id="Grant-Fourth-Forbes.350" from="Grant-Fourth-Forbes" to="Fifth-WilliamPenn-Smithfield" via="Grant-Forbes-Fifth Fifth-Grant-WilliamPenn"  />
<trip type="noVar" depart="0" id="Grant-Fourth-Forbes.457" from="Grant-Fourth-Forbes" to="Grant-Sixth-Seventh" via="Grant-Forbes-Fifth Grant-Fifth-Oliver Grant-Oliver-Sixth"  />
<trip type="noVar" depart="0" id="Ross-Fourth-Forbes.116" from="Ross-Fourth-Forbes" to="Forbes-Ross-RHS"  />
<trip type="noVar" depart="1" id="Grant-Fifth-Oliver.9" from="Grant-Fifth-Oliver" to="Sixth-Ross-RHS" via="Grant-Oliver-Sixth Sixth-Grant-Ross"  />
<trip type="noVar" depart="1" id="Sixth-RHS-Ross.177" from="Sixth-RHS-Ross" to="Grant-Sixth-Seventh" via="Sixth-Ross-Grant"  />
<trip type="noVar" depart="3" id="Sixth-Smithfield-WilliamPenn.126" from="Sixth-Smithfield-WilliamPenn" to="WilliamPenn-Forbes-Fourth" via="WilliamPenn-Sixth-Oliver WilliamPenn-Oliver-Fifth WilliamPenn-Fifth-Forbes"  />
<trip type="noVar" depart="4" id="Fifth-Smithfield-WilliamPenn.72" from="Fifth-Smithfield-WilliamPenn" to="Grant-Sixth-Seventh" via="Fifth-WilliamPenn-Grant Grant-Fifth-Oliver Grant-Oliver-Sixth"  />
<trip type="noVar" depart="5" id="Sixth-Smithfield-WilliamPenn.425" from="Sixth-Smithfield-WilliamPenn" to="Grant-Sixth-Seventh" via="Sixth-WilliamPenn-Grant"  />
<trip type="noVar" depart="5" id="Forbes-RHS-Ross.280" from="Forbes-RHS-Ross" to="Grant-Forbes-Fourth" via="Forbes-Ross-Grant"  />
<trip type="noVar" depart="6" id="Grant-Fourth-Forbes.10" from="Grant-Fourth-Forbes" to="Grant-Sixth-Seventh" via="Grant-Forbes-Fifth Grant-Fifth-Oliver Grant-Oliver-Sixth"  />
<trip type="noVar" depart="6" id="Grant-Fourth-Forbes.153" from="Grant-Fourth-Forbes" to="Grant-Sixth-Seventh" via="Grant-Forbes-Fifth Grant-Fifth-Oliver Grant-Oliver-Sixth"  />
<trip type="noVar" depart="7" id="Grant-Seventh-Sixth.591" from="Grant-Seventh-Sixth" to="Forbes-Ross-RHS" via="Grant-Sixth-Oliver Grant-Oliver-Fifth Grant-Fifth-Forbes Forbes-Grant-Ross"  />
<trip type="noVar" depart="7" id="Fifth-RHS-Ross.329" from="Fifth-RHS-Ross" to="Grant-Forbes-Fourth" via="Fifth-Ross-Grant Grant-Fifth-Forbes"  />
<trip type="noVar" depart="8" id="WilliamPenn-Seventh-Sixth.295" from="WilliamPenn-Seventh-Sixth" to="Ross-Sixth-Seventh" via="Sixth-WilliamPenn-Grant Sixth-Grant-Ross"  />
<trip type="noVar" depart="9" id="Ross-Seventh-Sixth.183" from="Ross-Seventh-Sixth" to="Ross-Forbes-Fourth" via="Ross-Sixth-Fifth Ross-Fifth-Forbes"  />
<trip type="noVar" depart="10" id="Fifth-RHS-Ross.295" from="Fifth-RHS-Ross" to="Fifth-WilliamPenn-Smithfield" via="Fifth-Ross-Grant Fifth-Grant-WilliamPenn"  />
<trip type="noVar" depart="11" id="WilliamPenn-Seventh-Sixth.309" from="WilliamPenn-Seventh-Sixth" to="Sixth-Ross-RHS" via="Sixth-WilliamPenn-Grant Sixth-Grant-Ross"  />
<trip type="noVar" depart="11" id="Oliver-Smithfield-WilliamPenn.88" from="Oliver-Smithfield-WilliamPenn" to="Grant-Sixth-Seventh" via="Oliver-WilliamPenn-Grant Grant-Oliver-Sixth"  />
<trip type="noVar" depart="11" id="Grant-Fourth-Forbes.109" from="Grant-Fourth-Forbes" to="Forbes-Ross-RHS" via="Forbes-Grant-Ross"  />
<trip type="noVar" depart="11" id="Grant-Fourth-Forbes.313" from="Grant-Fourth-Forbes" to="Grant-Sixth-Seventh" via="Grant-Forbes-Fifth Grant-Fifth-Oliver Grant-Oliver-Sixth"  />
<trip type="noVar" depart="11" id="Grant-Fourth-Forbes.406" from="Grant-Fourth-Forbes" to="Grant-Sixth-Seventh" via="Grant-Forbes-Fifth Grant-Fifth-Oliver Grant-Oliver-Sixth"  />
<trip type="noVar" depart="11" id="Ross-Seventh-Sixth.547" from="Ross-Seventh-Sixth" to="Sixth-Ross-RHS"  />
<trip type="noVar" depart="11" id="Forbes-RHS-Ross.440" from="Forbes-RHS-Ross" to="Ross-Forbes-Fourth"  />
<trip type="noVar" depart="11" id="Ross-Fourth-Forbes.122" from="Ross-Fourth-Forbes" to="Ross-Sixth-Seventh" via="Ross-Forbes-Fifth Ross-Fifth-Sixth"  />
<trip type="noVar" depart="12" id="Sixth-RHS-Ross.178" from="Sixth-RHS-Ross" to="Ross-Sixth-Seventh"  />
<trip type="noVar" depart="12" id="Sixth-RHS-Ross.390" from="Sixth-RHS-Ross" to="Grant-Forbes-Fourth" via="Sixth-Ross-Grant Grant-Sixth-Oliver Grant-Oliver-Fifth Grant-Fifth-Forbes"  />
<trip type="noVar" depart="14" id="Grant-Seventh-Sixth.432" from="Grant-Seventh-Sixth" to="Sixth-Ross-RHS" via="Sixth-Grant-Ross"  />
<trip type="noVar" depart="14" id="Sixth-Smithfield-WilliamPenn.395" from="Sixth-Smithfield-WilliamPenn" to="Ross-Forbes-Fourth" via="Sixth-WilliamPenn-Grant Sixth-Grant-Ross Ross-Sixth-Fifth Ross-Fifth-Forbes"  />
<trip type="noVar" depart="14" id="Ross-Seventh-Sixth.67" from="Ross-Seventh-Sixth" to="WilliamPenn-Forbes-Fourth" via="Sixth-Ross-Grant Sixth-Grant-WilliamPenn WilliamPenn-Sixth-Oliver WilliamPenn-Oliver-Fifth WilliamPenn-Fifth-Forbes"  />
<trip type="noVar" depart="14" id="Ross-Fourth-Forbes.306" from="Ross-Fourth-Forbes" to="Forbes-Ross-RHS"  />
<trip type="noVar" depart="16" id="Grant-Seventh-Sixth.324" from="Grant-Seventh-Sixth" to="Grant-Forbes-Fourth" via="Grant-Sixth-Oliver Grant-Oliver-Fifth Grant-Fifth-Forbes"  />
<trip type="noVar" depart="16" id="Forbes-RHS-Ross.313" from="Forbes-RHS-Ross" to="WilliamPenn-Forbes-Fourth" via="Forbes-Ross-Grant Forbes-Grant-WilliamPenn"  />
<trip type="noVar" depart="16" id="Ross-Fourth-Forbes.406" from="Ross-Fourth-Forbes" to="Forbes-Ross-RHS"  />
<trip type="noVar" depart="18" id="Ross-Seventh-Sixth.139" from="Ross-Seventh-Sixth" to="Sixth-Ross-RHS"  />
<trip type="noVar" depart="18" id="Fifth-RHS-Ross.279" from="Fifth-RHS-Ross" to="WilliamPenn-Forbes-Fourth" via="Fifth-Ross-Grant Fifth-Grant-WilliamPenn WilliamPenn-Fifth-Forbes"  />
<trip type="noVar" depart="19" id="Grant-Fourth-Forbes.287" from="Grant-Fourth-Forbes" to="Forbes-Ross-RHS" via="Forbes-Grant-Ross"  />
<trip type="noVar" depart="19" id="Sixth-RHS-Ross.378" from="Sixth-RHS-Ross" to="Ross-Sixth-Seventh"  />
<trip type="noVar" depart="21" id="Grant-Fourth-Forbes.245" from="Grant-Fourth-Forbes" to="Ross-Forbes-Fourth" via="Forbes-Grant-Ross"  />
<trip type="noVar" depart="21" id="Ross-Seventh-Sixth.52" from="Ross-Seventh-Sixth" to="Forbes-WilliamPenn-Smithfield" via="Ross-Sixth-Fifth Fifth-Ross-Grant Fifth-Grant-WilliamPenn WilliamPenn-Fifth-Forbes"  />
<trip type="noVar" depart="21" id="Sixth-RHS-Ross.247" from="Sixth-RHS-Ross" to="Sixth-WilliamPenn-Smithfield" via="Sixth-Ross-Grant Sixth-Grant-WilliamPenn"  />
<trip type="noVar" depart="23" id="WilliamPenn-Seventh-Sixth.26" from="WilliamPenn-Seventh-Sixth" to="Sixth-WilliamPenn-Smithfield"  />
<trip type="noVar" depart="23" id="Forbes-RHS-Ross.512" from="Forbes-RHS-Ross" to="Grant-Sixth-Seventh" via="Forbes-Ross-Grant Grant-Forbes-Fifth Grant-Fifth-Oliver Grant-Oliver-Sixth"  />
<trip type="noVar" depart="23" id="Ross-Fourth-Forbes.268" from="Ross-Fourth-Forbes" to="Ross-Sixth-Seventh" via="Ross-Forbes-Fifth Ross-Fifth-Sixth"  />
<trip type="noVar" depart="25" id="Ross-Seventh-Sixth.373" from="Ross-Seventh-Sixth" to="Sixth-Ross-RHS"  />
<trip type="noVar" depart="26" id="Oliver-Smithfield-WilliamPenn.250" from="Oliver-Smithfield-WilliamPenn" to="Sixth-Ross-RHS" via="Oliver-WilliamPenn-Grant Grant-Oliver-Sixth Sixth-Grant-Ross"  />
<trip type="noVar" depart="26" id="Ross-Seventh-Sixth.497" from="Ross-Seventh-Sixth" to="Sixth-Ross-RHS"  />
<trip type="noVar" depart="28" id="WilliamPenn-Seventh-Sixth.283" from="WilliamPenn-Seventh-Sixth" to="Sixth-WilliamPenn-Smithfield"  />
<trip type="noVar" depart="28" id="Sixth-RHS-Ross.269" from="Sixth-RHS-Ross" to="Forbes-Ross-RHS" via="Sixth-Ross-Grant Sixth-Grant-WilliamPenn WilliamPenn-Sixth-Oliver Oliver-WilliamPenn-Grant Grant-Oliver-Fifth Grant-Fifth-Forbes Forbes-Grant-Ross"  />
<trip type="noVar" depart="28" id="Sixth-RHS-Ross.460" from="Sixth-RHS-Ross" to="WilliamPenn-Forbes-Fourth" via="Sixth-Ross-Grant Sixth-Grant-WilliamPenn WilliamPenn-Sixth-Oliver WilliamPenn-Oliver-Fifth WilliamPenn-Fifth-Forbes"  />
<trip type="noVar" depart="29" id="Ross-Seventh-Sixth.383" from="Ross-Seventh-Sixth" to="Grant-Sixth-Seventh" via="Sixth-Ross-Grant"  />
<trip type="noVar" depart="29" id="Fifth-RHS-Ross.59" from="Fifth-RHS-Ross" to="Forbes-WilliamPenn-Smithfield" via="Fifth-Ross-Grant Grant-Fifth-Forbes Forbes-Grant-WilliamPenn"  />
<trip type="noVar" depart="29" id="Ross-Fourth-Forbes.610" from="Ross-Fourth-Forbes" to="Forbes-Ross-RHS"  />
<trip type="noVar" depart="30" id="Sixth-Smithfield-WilliamPenn.179" from="Sixth-Smithfield-WilliamPenn" to="Sixth-Ross-RHS" via="Sixth-WilliamPenn-Grant Sixth-Grant-Ross"  />
<trip type="noVar" depart="31" id="Grant-Fifth-Oliver.11" from="Grant-Fifth-Oliver" to="Sixth-Ross-RHS" via="Grant-Oliver-Sixth Sixth-Grant-Ross"  />
<trip type="noVar" depart="31" id="Grant-Fourth-Forbes.232" from="Grant-Fourth-Forbes" to="WilliamPenn-Forbes-Fourth" via="Forbes-Grant-WilliamPenn"  />
<trip type="noVar" depart="31" id="Grant-Fourth-Forbes.652" from="Grant-Fourth-Forbes" to="Fifth-WilliamPenn-Smithfield" via="Grant-Forbes-Fifth Fifth-Grant-WilliamPenn"  />
<trip type="noVar" depart="31" id="Ross-Fourth-Forbes.529" from="Ross-Fourth-Forbes" to="Ross-Sixth-Seventh" via="Ross-Forbes-Fifth Ross-Fifth-Sixth"  />
<trip type="noVar" depart="32" id="Grant-Fourth-Forbes.560" from="Grant-Fourth-Forbes" to="Fifth-Ross-RHS" via="Grant-Forbes-Fifth Fifth-Grant-Ross"  />
<trip type="noVar" depart="33" id="Grant-Seventh-Sixth.363" from="Grant-Seventh-Sixth" to="Grant-Forbes-Fourth" via="Grant-Sixth-Oliver Grant-Oliver-Fifth Grant-Fifth-Forbes"  />
<trip type="noVar" depart="33" id="Grant-Seventh-Sixth.466" from="Grant-Seventh-Sixth" to="Grant-Forbes-Fourth" via="Grant-Sixth-Oliver Grant-Oliver-Fifth Grant-Fifth-Forbes"  />
<trip type="noVar" depart="33" id="Sixth-RHS-Ross.88" from="Sixth-RHS-Ross" to="Ross-Sixth-Seventh"  />
<trip type="noVar" depart="34" id="Grant-Fourth-Forbes.456" from="Grant-Fourth-Forbes" to="Grant-Sixth-Seventh" via="Grant-Forbes-Fifth Grant-Fifth-Oliver Grant-Oliver-Sixth"  />
<trip type="noVar" depart="34" id="Ross-Seventh-Sixth.39" from="Ross-Seventh-Sixth" to="Ross-Forbes-Fourth" via="Ross-Sixth-Fifth Ross-Fifth-Forbes"  />
<trip type="noVar" depart="34" id="Sixth-RHS-Ross.338" from="Sixth-RHS-Ross" to="Oliver-WilliamPenn-Smithfield" via="Sixth-Ross-Grant Sixth-Grant-WilliamPenn WilliamPenn-Sixth-Oliver"  />
<trip type="noVar" depart="35" id="Grant-Seventh-Sixth.108" from="Grant-Seventh-Sixth" to="Grant-Forbes-Fourth" via="Grant-Sixth-Oliver Grant-Oliver-Fifth Grant-Fifth-Forbes"  />
<trip type="noVar" depart="35" id="Grant-Seventh-Sixth.672" from="Grant-Seventh-Sixth" to="Grant-Forbes-Fourth" via="Grant-Sixth-Oliver Grant-Oliver-Fifth Grant-Fifth-Forbes"  />
<trip type="noVar" depart="35" id="Fifth-RHS-Ross.47" from="Fifth-RHS-Ross" to="WilliamPenn-Forbes-Fourth" via="Fifth-Ross-Grant Fifth-Grant-WilliamPenn WilliamPenn-Fifth-Forbes"  />
<trip type="noVar" depart="36" id="WilliamPenn-Seventh-Sixth.352" from="WilliamPenn-Seventh-Sixth" to="Sixth-Ross-RHS" via="Sixth-WilliamPenn-Grant Sixth-Grant-Ross"  />
<trip type="noVar" depart="36" id="Grant-Fourth-Forbes.229" from="Grant-Fourth-Forbes" to="Grant-Sixth-Seventh" via="Grant-Forbes-Fifth Grant-Fifth-Oliver Grant-Oliver-Sixth"  />
<trip type="noVar" depart="37" id="WilliamPenn-Seventh-Sixth.340" from="WilliamPenn-Seventh-Sixth" to="Sixth-Ross-RHS" via="Sixth-WilliamPenn-Grant Sixth-Grant-Ross"  />
<trip type="noVar" depart="38" id="WilliamPenn-Seventh-Sixth.161" from="WilliamPenn-Seventh-Sixth" to="Sixth-WilliamPenn-Smithfield"  />
<trip type="noVar" depart="38" id="Oliver-Smithfield-WilliamPenn.90" from="Oliver-Smithfield-WilliamPenn" to="Grant-Sixth-Seventh" via="Oliver-WilliamPenn-Grant Grant-Oliver-Sixth"  />
<trip type="noVar" depart="39" id="Grant-Seventh-Sixth.167" from="Grant-Seventh-Sixth" to="Grant-Forbes-Fourth" via="Grant-Sixth-Oliver Grant-Oliver-Fifth Grant-Fifth-Forbes"  />
<trip type="noVar" depart="39" id="Ross-Fourth-Forbes.572" from="Ross-Fourth-Forbes" to="Ross-Sixth-Seventh" via="Ross-Forbes-Fifth Ross-Fifth-Sixth"  />
<trip type="noVar" depart="40" id="Oliver-Smithfield-WilliamPenn.271" from="Oliver-Smithfield-WilliamPenn" to="Grant-Sixth-Seventh" via="Oliver-WilliamPenn-Grant Grant-Oliver-Sixth"  />
<trip type="noVar" depart="40" id="Oliver-Smithfield-WilliamPenn.324" from="Oliver-Smithfield-WilliamPenn" to="Grant-Sixth-Seventh" via="Oliver-WilliamPenn-Grant Grant-Oliver-Sixth"  />
<trip type="noVar" depart="41" id="WilliamPenn-Seventh-Sixth.184" from="WilliamPenn-Seventh-Sixth" to="Sixth-Ross-RHS" via="Sixth-WilliamPenn-Grant Sixth-Grant-Ross"  />
<trip type="noVar" depart="41" id="WilliamPenn-Seventh-Sixth.214" from="WilliamPenn-Seventh-Sixth" to="Sixth-WilliamPenn-Smithfield"  />
<trip type="noVar" depart="41" id="Forbes-RHS-Ross.68" from="Forbes-RHS-Ross" to="WilliamPenn-Forbes-Fourth" via="Forbes-Ross-Grant Forbes-Grant-WilliamPenn"  />
<trip type="noVar" depart="43" id="Grant-Fourth-Forbes.629" from="Grant-Fourth-Forbes" to="Grant-Sixth-Seventh" via="Grant-Forbes-Fifth Grant-Fifth-Oliver Grant-Oliver-Sixth"  />
<trip type="noVar" depart="43" id="Fifth-RHS-Ross.330" from="Fifth-RHS-Ross" to="Fifth-WilliamPenn-Smithfield" via="Fifth-Ross-Grant Fifth-Grant-WilliamPenn"  />
<trip type="noVar" depart="44" id="Grant-Seventh-Sixth.91" from="Grant-Seventh-Sixth" to="Sixth-Ross-RHS" via="Sixth-Grant-Ross"  />
<trip type="noVar" depart="44" id="Grant-Seventh-Sixth.242" from="Grant-Seventh-Sixth" to="Grant-Forbes-Fourth" via="Grant-Sixth-Oliver Grant-Oliver-Fifth Grant-Fifth-Forbes"  />
<trip type="noVar" depart="44" id="Sixth-Smithfield-WilliamPenn.294" from="Sixth-Smithfield-WilliamPenn" to="Ross-Sixth-Seventh" via="Sixth-WilliamPenn-Grant Sixth-Grant-Ross"  />
<trip type="noVar" depart="44" id="Ross-Fourth-Forbes.52" from="Ross-Fourth-Forbes" to="Forbes-Ross-RHS"  />
<trip type="noVar" depart="45" id="Grant-Seventh-Sixth.628" from="Grant-Seventh-Sixth" to="Grant-Forbes-Fourth" via="Grant-Sixth-Oliver Grant-Oliver-Fifth Grant-Fifth-Forbes"  />
<trip type="noVar" depart="46" id="WilliamPenn-Seventh-Sixth.167" from="WilliamPenn-Seventh-Sixth" to="WilliamPenn-Forbes-Fourth" via="WilliamPenn-Sixth-Oliver WilliamPenn-Oliver-Fifth WilliamPenn-Fifth-Forbes"  />
<trip type="noVar" depart="46" id="Ross-Fourth-Forbes.386" from="Ross-Fourth-Forbes" to="Forbes-Ross-RHS"  />
<trip type="noVar" depart="48" id="Grant-Fourth-Forbes.175" from="Grant-Fourth-Forbes" to="Sixth-WilliamPenn-Smithfield" via="Grant-Forbes-Fifth Grant-Fifth-Oliver Grant-Oliver-Sixth Sixth-Grant-WilliamPenn"  />
<trip type="noVar" depart="48" id="Grant-Fourth-Forbes.311" from="Grant-Fourth-Forbes" to="Forbes-Ross-RHS" via="Forbes-Grant-Ross"  />
<trip type="noVar" depart="48" id="Sixth-RHS-Ross.445" from="Sixth-RHS-Ross" to="Grant-Sixth-Seventh" via="Sixth-Ross-Grant"  />
<trip type="noVar" depart="49" id="Grant-Fourth-Forbes.342" from="Grant-Fourth-Forbes" to="Grant-Sixth-Seventh" via="Grant-Forbes-Fifth Grant-Fifth-Oliver Grant-Oliver-Sixth"  />
<trip type="noVar" depart="50" id="Ross-Seventh-Sixth.73" from="Ross-Seventh-Sixth" to="Fifth-WilliamPenn-Smithfield" via="Sixth-Ross-Grant Sixth-Grant-WilliamPenn WilliamPenn-Sixth-Oliver WilliamPenn-Oliver-Fifth"  />
<trip type="noVar" depart="51" id="Forbes-RHS-Ross.391" from="Forbes-RHS-Ross" to="WilliamPenn-Forbes-Fourth" via="Forbes-Ross-Grant Forbes-Grant-WilliamPenn"  />
<trip type="noVar" depart="52" id="Forbes-RHS-Ross.183" from="Forbes-RHS-Ross" to="WilliamPenn-Forbes-Fourth" via="Forbes-Ross-Grant Forbes-Grant-WilliamPenn"  />
<trip type="noVar" depart="53" id="Ross-Seventh-Sixth.10" from="Ross-Seventh-Sixth" to="Fifth-Ross-RHS" via="Ross-Sixth-Fifth"  />
<trip type="noVar" depart="53" id="Ross-Seventh-Sixth.490" from="Ross-Seventh-Sixth" to="Ross-Forbes-Fourth" via="Ross-Sixth-Fifth Ross-Fifth-Forbes"  />
<trip type="noVar" depart="54" id="Ross-Seventh-Sixth.223" from="Ross-Seventh-Sixth" to="Sixth-WilliamPenn-Smithfield" via="Sixth-Ross-Grant Sixth-Grant-WilliamPenn"  />
<trip type="noVar" depart="54" id="Sixth-RHS-Ross.176" from="Sixth-RHS-Ross" to="Sixth-WilliamPenn-Smithfield" via="Sixth-Ross-Grant Sixth-Grant-WilliamPenn"  />
<trip type="noVar" depart="54" id="Forbes-RHS-Ross.536" from="Forbes-RHS-Ross" to="Grant-Forbes-Fourth" via="Forbes-Ross-Grant"  />
<trip type="noVar" depart="56" id="Grant-Fourth-Forbes.304" from="Grant-Fourth-Forbes" to="Grant-Sixth-Seventh" via="Grant-Forbes-Fifth Grant-Fifth-Oliver Grant-Oliver-Sixth"  />
<trip type="noVar" depart="56" id="Forbes-Smithfield-WilliamPenn.5" from="Forbes-Smithfield-WilliamPenn" to="WilliamPenn-Forbes-Fourth"  />
<trip type="noVar" depart="56" id="Forbes-RHS-Ross.503" from="Forbes-RHS-Ross" to="Forbes-WilliamPenn-Smithfield" via="Forbes-Ross-Grant Forbes-Grant-WilliamPenn"  />
<trip type="noVar" depart="57" id="Grant-Seventh-Sixth.209" from="Grant-Seventh-Sixth" to="Grant-Forbes-Fourth" via="Grant-Sixth-Oliver Grant-Oliver-Fifth Grant-Fifth-Forbes"  />
<trip type="noVar" depart="57" id="Oliver-Smithfield-WilliamPenn.138" from="Oliver-Smithfield-WilliamPenn" to="Grant-Sixth-Seventh" via="Oliver-WilliamPenn-Grant Grant-Oliver-Sixth"  />
<trip type="noVar" depart="57" id="Forbes-RHS-Ross.106" from="Forbes-RHS-Ross" to="Forbes-WilliamPenn-Smithfield" via="Forbes-Ross-Grant Forbes-Grant-WilliamPenn"  />
<trip type="noVar" depart="58" id="Sixth-RHS-Ross.444" from="Sixth-RHS-Ross" to="Grant-Sixth-Seventh" via="Sixth-Ross-Grant"  />
<trip type="noVar" depart="58" id="Ross-Fourth-Forbes.633" from="Ross-Fourth-Forbes" to="Forbes-Ross-RHS"  />
<trip type="noVar" depart="59" id="Sixth-Smithfield-WilliamPenn.50" from="Sixth-Smithfield-WilliamPenn" to="Sixth-Ross-RHS" via="Sixth-WilliamPenn-Grant Sixth-Grant-Ross"  />
<trip type="noVar" depart="59" id="Grant-Fourth-Forbes.355" from="Grant-Fourth-Forbes" to="Forbes-WilliamPenn-Smithfield" via="Forbes-Grant-WilliamPenn"  />
<trip type="noVar" depart="59" id="Sixth-RHS-Ross.146" from="Sixth-RHS-Ross" to="Grant-Sixth-Seventh" via="Sixth-Ross-Grant"  />
<trip type="noVar" depart="60" id="Grant-Seventh-Sixth.600" from="Grant-Seventh-Sixth" to="Fifth-WilliamPenn-Smithfield" via="Grant-Sixth-Oliver Grant-Oliver-Fifth Fifth-Grant-WilliamPenn"  />
<trip type="noVar" depart="61" id="Ross-Seventh-Sixth.209" from="Ross-Seventh-Sixth" to="Fifth-Ross-RHS" via="Ross-Sixth-Fifth"  />
<trip type="noVar" depart="63" id="Sixth-RHS-Ross.25" from="Sixth-RHS-Ross" to="Sixth-WilliamPenn-Smithfield" via="Sixth-Ross-Grant Sixth-Grant-WilliamPenn"  />
<trip type="noVar" depart="63" id="Ross-Fourth-Forbes.419" from="Ross-Fourth-Forbes" to="Ross-Sixth-Seventh" via="Ross-Forbes-Fifth Ross-Fifth-Sixth"  />
<trip type="noVar" depart="64" id="Grant-Seventh-Sixth.99" from="Grant-Seventh-Sixth" to="Grant-Forbes-Fourth" via="Grant-Sixth-Oliver Grant-Oliver-Fifth Grant-Fifth-Forbes"  />
<trip type="noVar" depart="64" id="Oliver-Smithfield-WilliamPenn.91" from="Oliver-Smithfield-WilliamPenn" to="Grant-Sixth-Seventh" via="Oliver-WilliamPenn-Grant Grant-Oliver-Sixth"  />
<trip type="noVar" depart="64" id="Ross-Seventh-Sixth.114" from="Ross-Seventh-Sixth" to="Fifth-WilliamPenn-Smithfield" via="Ross-Sixth-Fifth Fifth-Ross-Grant Fifth-Grant-WilliamPenn"  />
<trip type="noVar" depart="66" id="Sixth-RHS-Ross.69" from="Sixth-RHS-Ross" to="Sixth-WilliamPenn-Smithfield" via="Sixth-Ross-Grant Sixth-Grant-WilliamPenn"  />
<trip type="noVar" depart="66" id="Ross-Fourth-Forbes.228" from="Ross-Fourth-Forbes" to="Forbes-Ross-RHS"  />
<trip type="noVar" depart="68" id="Oliver-Smithfield-WilliamPenn.89" from="Oliver-Smithfield-WilliamPenn" to="Sixth-Ross-RHS" via="Oliver-WilliamPenn-Grant Grant-Oliver-Sixth Sixth-Grant-Ross"  />
<trip type="noVar" depart="68" id="Grant-Fourth-Forbes.364" from="Grant-Fourth-Forbes" to="Fifth-Ross-RHS" via="Grant-Forbes-Fifth Fifth-Grant-Ross"  />
<trip type="noVar" depart="68" id="Grant-Fourth-Forbes.442" from="Grant-Fourth-Forbes" to="Grant-Sixth-Seventh" via="Grant-Forbes-Fifth Grant-Fifth-Oliver Grant-Oliver-Sixth"  />
<trip type="noVar" depart="69" id="Sixth-Smithfield-WilliamPenn.277" from="Sixth-Smithfield-WilliamPenn" to="Sixth-Ross-RHS" via="Sixth-WilliamPenn-Grant Sixth-Grant-Ross"  />
<trip type="noVar" depart="70" id="Oliver-Smithfield-WilliamPenn.299" from="Oliver-Smithfield-WilliamPenn" to="Grant-Sixth-Seventh" via="Oliver-WilliamPenn-Grant Grant-Oliver-Sixth"  />
<trip type="noVar" depart="70" id="Oliver-Smithfield-WilliamPenn.393" from="Oliver-Smithfield-WilliamPenn" to="Grant-Sixth-Seventh" via="Oliver-WilliamPenn-Grant Grant-Oliver-Sixth"  />
<trip type="noVar" depart="71" id="WilliamPenn-Seventh-Sixth.88" from="WilliamPenn-Seventh-Sixth" to="Oliver-WilliamPenn-Smithfield" via="WilliamPenn-Sixth-Oliver"  />
<trip type="noVar" depart="72" id="Grant-Seventh-Sixth.721" from="Grant-Seventh-Sixth" to="Sixth-Ross-RHS" via="Sixth-Grant-Ross"  />
<trip type="noVar" depart="72" id="Grant-Fourth-Forbes.271" from="Grant-Fourth-Forbes" to="Grant-Sixth-Seventh" via="Grant-Forbes-Fifth Grant-Fifth-Oliver Grant-Oliver-Sixth"  />
<trip type="noVar" depart="72" id="Ross-Seventh-Sixth.484" from="Ross-Seventh-Sixth" to="WilliamPenn-Forbes-Fourth" via="Ross-Sixth-Fifth Fifth-Ross-Grant Fifth-Grant-WilliamPenn WilliamPenn-Fifth-Forbes"  />
<trip type="noVar" depart="73" id="Ross-Seventh-Sixth.453" from="Ross-Seventh-Sixth" to="Sixth-Ross-RHS"  />
<trip type="noVar" depart="74" id="Sixth-Smithfield-WilliamPenn.387" from="Sixth-Smithfield-WilliamPenn" to="Sixth-Ross-RHS" via="Sixth-WilliamPenn-Grant Sixth-Grant-Ross"  />
<trip type="noVar" depart="75" id="Fifth-Smithfield-WilliamPenn.108" from="Fifth-Smithfield-WilliamPenn" to="Fifth-Ross-RHS" via="Fifth-WilliamPenn-Grant Fifth-Grant-Ross"  />
<trip type="noVar" depart="75" id="Forbes-RHS-Ross.627" from="Forbes-RHS-Ross" to="Grant-Forbes-Fourth" via="Forbes-Ross-Grant"  />
<trip type="noVar" depart="76" id="Ross-Seventh-Sixth.394" from="Ross-Seventh-Sixth" to="Grant-Forbes-Fourth" via="Ross-Sixth-Fifth Fifth-Ross-Grant Grant-Fifth-Forbes"  />
<trip type="noVar" depart="76" id="Sixth-RHS-Ross.19" from="Sixth-RHS-Ross" to="Grant-Sixth-Seventh" via="Sixth-Ross-Grant"  />
<trip type="noVar" depart="76" id="Forbes-RHS-Ross.288" from="Forbes-RHS-Ross" to="Grant-Forbes-Fourth" via="Forbes-Ross-Grant"  />
<trip type="noVar" depart="77" id="Ross-Seventh-Sixth.607" from="Ross-Seventh-Sixth" to="Fifth-WilliamPenn-Smithfield" via="Ross-Sixth-Fifth Fifth-Ross-Grant Fifth-Grant-WilliamPenn"  />
<trip type="noVar" depart="77" id="Forbes-RHS-Ross.281" from="Forbes-RHS-Ross" to="Grant-Forbes-Fourth" via="Forbes-Ross-Grant"  />
<trip type="noVar" depart="79" id="Grant-Fourth-Forbes.628" from="Grant-Fourth-Forbes" to="Forbes-Ross-RHS" via="Forbes-Grant-Ross"  />
<trip type="noVar" depart="79" id="Fifth-RHS-Ross.180" from="Fifth-RHS-Ross" to="Grant-Forbes-Fourth" via="Fifth-Ross-Grant Grant-Fifth-Forbes"  />
<trip type="noVar" depart="80" id="WilliamPenn-Seventh-Sixth.51" from="WilliamPenn-Seventh-Sixth" to="Fifth-WilliamPenn-Smithfield" via="WilliamPenn-Sixth-Oliver WilliamPenn-Oliver-Fifth"  />
<trip type="noVar" depart="80" id="Sixth-Smithfield-WilliamPenn.159" from="Sixth-Smithfield-WilliamPenn" to="Sixth-Ross-RHS" via="Sixth-WilliamPenn-Grant Sixth-Grant-Ross"  />
<trip type="noVar" depart="81" id="Grant-Seventh-Sixth.410" from="Grant-Seventh-Sixth" to="WilliamPenn-Forbes-Fourth" via="Grant-Sixth-Oliver Grant-Oliver-Fifth Grant-Fifth-Forbes Forbes-Grant-WilliamPenn"  />
<trip type="noVar" depart="81" id="Grant-Fourth-Forbes.19" from="Grant-Fourth-Forbes" to="Sixth-WilliamPenn-Smithfield" via="Grant-Forbes-Fifth Grant-Fifth-Oliver Grant-Oliver-Sixth Sixth-Grant-WilliamPenn"  />
<trip type="noVar" depart="81" id="Grant-Fourth-Forbes.374" from="Grant-Fourth-Forbes" to="Forbes-Ross-RHS" via="Forbes-Grant-Ross"  />
<trip type="noVar" depart="81" id="Grant-Fourth-Forbes.385" from="Grant-Fourth-Forbes" to="Forbes-WilliamPenn-Smithfield" via="Forbes-Grant-WilliamPenn"  />
<trip type="noVar" depart="81" id="Ross-Fourth-Forbes.653" from="Ross-Fourth-Forbes" to="Forbes-Ross-RHS"  />
<trip type="noVar" depart="82" id="Ross-Seventh-Sixth.158" from="Ross-Seventh-Sixth" to="Sixth-Ross-RHS"  />
<trip type="noVar" depart="82" id="Ross-Fourth-Forbes.615" from="Ross-Fourth-Forbes" to="Grant-Forbes-Fourth" via="Ross-Forbes-Fifth Fifth-Ross-Grant Grant-Fifth-Forbes"  />
<trip type="noVar" depart="83" id="Oliver-Smithfield-WilliamPenn.132" from="Oliver-Smithfield-WilliamPenn" to="Grant-Sixth-Seventh" via="Oliver-WilliamPenn-Grant Grant-Oliver-Sixth"  />
<trip type="noVar" depart="83" id="Sixth-RHS-Ross.368" from="Sixth-RHS-Ross" to="Grant-Forbes-Fourth" via="Sixth-Ross-Grant Grant-Sixth-Oliver Grant-Oliver-Fifth Grant-Fifth-Forbes"  />
<trip type="noVar" depart="84" id="Ross-Seventh-Sixth.424" from="Ross-Seventh-Sixth" to="WilliamPenn-Forbes-Fourth" via="Ross-Sixth-Fifth Ross-Fifth-Forbes Forbes-Ross-Grant Forbes-Grant-WilliamPenn"  />
<trip type="noVar" depart="85" id="Fifth-RHS-Ross.410" from="Fifth-RHS-Ross" to="Fifth-WilliamPenn-Smithfield" via="Fifth-Ross-Grant Fifth-Grant-WilliamPenn"  />
<trip type="noVar" depart="86" id="Grant-Seventh-Sixth.409" from="Grant-Seventh-Sixth" to="Sixth-Ross-RHS" via="Sixth-Grant-Ross"  />
<trip type="noVar" depart="86" id="Sixth-Smithfield-WilliamPenn.149" from="Sixth-Smithfield-WilliamPenn" to="Sixth-Ross-RHS" via="Sixth-WilliamPenn-Grant Sixth-Grant-Ross"  />
<trip type="noVar" depart="86" id="Oliver-Smithfield-WilliamPenn.16" from="Oliver-Smithfield-WilliamPenn" to="Fifth-WilliamPenn-Smithfield" via="WilliamPenn-Oliver-Fifth"  />
<trip type="noVar" depart="87" id="Ross-Fourth-Forbes.469" from="Ross-Fourth-Forbes" to="Ross-Sixth-Seventh" via="Ross-Forbes-Fifth Ross-Fifth-Sixth"  />
<trip type="noVar" depart="87" id="Ross-Fourth-Forbes.485" from="Ross-Fourth-Forbes" to="Ross-Sixth-Seventh" via="Ross-Forbes-Fifth Ross-Fifth-Sixth"  />
<trip type="noVar" depart="88" id="WilliamPenn-Seventh-Sixth.194" from="WilliamPenn-Seventh-Sixth" to="Ross-Forbes-Fourth" via="Sixth-WilliamPenn-Grant Grant-Sixth-Oliver Grant-Oliver-Fifth Grant-Fifth-Forbes Forbes-Grant-Ross"  />
<trip type="noVar" depart="89" id="Oliver-Smithfield-WilliamPenn.332" from="Oliver-Smithfield-WilliamPenn" to="WilliamPenn-Forbes-Fourth" via="WilliamPenn-Oliver-Fifth WilliamPenn-Fifth-Forbes"  />
<trip type="noVar" depart="89" id="Grant-Fourth-Forbes.371" from="Grant-Fourth-Forbes" to="Grant-Sixth-Seventh" via="Grant-Forbes-Fifth Grant-Fifth-Oliver Grant-Oliver-Sixth"  />
<trip type="noVar" depart="89" id="Fifth-RHS-Ross.203" from="Fifth-RHS-Ross" to="Ross-Sixth-Seventh" via="Fifth-Ross-Grant Grant-Fifth-Oliver Grant-Oliver-Sixth Sixth-Grant-Ross"  />
<trip type="noVar" depart="90" id="Grant-Seventh-Sixth.718" from="Grant-Seventh-Sixth" to="Grant-Forbes-Fourth" via="Grant-Sixth-Oliver Grant-Oliver-Fifth Grant-Fifth-Forbes"  />
<trip type="noVar" depart="91" id="Grant-Seventh-Sixth.716" from="Grant-Seventh-Sixth" to="Sixth-Ross-RHS" via="Sixth-Grant-Ross"  />
<trip type="noVar" depart="91" id="Grant-Fourth-Forbes.219" from="Grant-Fourth-Forbes" to="Grant-Sixth-Seventh" via="Grant-Forbes-Fifth Grant-Fifth-Oliver Grant-Oliver-Sixth"  />
<trip type="noVar" depart="91" id="Fifth-RHS-Ross.258" from="Fifth-RHS-Ross" to="Ross-Sixth-Seventh" via="Ross-Fifth-Sixth"  />
<trip type="noVar" depart="93" id="Oliver-Smithfield-WilliamPenn.57" from="Oliver-Smithfield-WilliamPenn" to="Sixth-Ross-RHS" via="Oliver-WilliamPenn-Grant Grant-Oliver-Sixth Sixth-Grant-Ross"  />
<trip type="noVar" depart="94" id="Grant-Seventh-Sixth.83" from="Grant-Seventh-Sixth" to="Forbes-Ross-RHS" via="Grant-Sixth-Oliver Grant-Oliver-Fifth Grant-Fifth-Forbes Forbes-Grant-Ross"  />
<trip type="noVar" depart="94" id="Sixth-Smithfield-WilliamPenn.265" from="Sixth-Smithfield-WilliamPenn" to="Sixth-Ross-RHS" via="Sixth-WilliamPenn-Grant Sixth-Grant-Ross"  />
<trip type="noVar" depart="94" id="Ross-Seventh-Sixth.294" from="Ross-Seventh-Sixth" to="Grant-Sixth-Seventh" via="Sixth-Ross-Grant"  />
<trip type="noVar" depart="95" id="Grant-Fourth-Forbes.78" from="Grant-Fourth-Forbes" to="Ross-Sixth-Seventh" via="Forbes-Grant-Ross Ross-Forbes-Fifth Ross-Fifth-Sixth"  />
<trip type="noVar" depart="96" id="Grant-Fourth-Forbes.301" from="Grant-Fourth-Forbes" to="Grant-Sixth-Seventh" via="Grant-Forbes-Fifth Grant-Fifth-Oliver Grant-Oliver-Sixth"  />
<trip type="noVar" depart="96" id="Forbes-RHS-Ross.365" from="Forbes-RHS-Ross" to="WilliamPenn-Forbes-Fourth" via="Forbes-Ross-Grant Forbes-Grant-WilliamPenn"  />
<trip type="noVar" depart="97" id="Forbes-RHS-Ross.409" from="Forbes-RHS-Ross" to="WilliamPenn-Forbes-Fourth" via="Forbes-Ross-Grant Forbes-Grant-WilliamPenn"  />
<trip type="noVar" depart="97" id="Ross-Fourth-Forbes.288" from="Ross-Fourth-Forbes" to="Forbes-Ross-RHS"  />
<trip type="noVar" depart="98" id="Ross-Fourth-Forbes.565" from="Ross-Fourth-Forbes" to="Forbes-Ross-RHS"  />
<trip type="noVar" depart="99" id="WilliamPenn-Seventh-Sixth.232" from="WilliamPenn-Seventh-Sixth" to="Sixth-Ross-RHS" via="Sixth-WilliamPenn-Grant Sixth-Grant-Ross"  />
<trip type="noVar" depart="100" id="Sixth-Smithfield-WilliamPenn.381" from="Sixth-Smithfield-WilliamPenn" to="Ross-Sixth-Seventh" via="WilliamPenn-Sixth-Oliver WilliamPenn-Oliver-Fifth Fifth-WilliamPenn-Grant Grant-Fifth-Oliver Grant-Oliver-Sixth Sixth-Grant-Ross"  />
<trip type="noVar" depart="101" id="Sixth-Smithfield-WilliamPenn.343" from="Sixth-Smithfield-WilliamPenn" to="Sixth-Ross-RHS" via="Sixth-WilliamPenn-Grant Sixth-Grant-Ross"  />
<trip type="noVar" depart="101" id="Oliver-Smithfield-WilliamPenn.233" from="Oliver-Smithfield-WilliamPenn" to="Grant-Sixth-Seventh" via="Oliver-WilliamPenn-Grant Grant-Oliver-Sixth"  />
<trip type="noVar" depart="101" id="Sixth-RHS-Ross.131" from="Sixth-RHS-Ross" to="Grant-Sixth-Seventh" via="Sixth-Ross-Grant"  />