<?xml version="1.0" encoding="UTF-8"?>

<!-- generated on 2025-02-03 19:31:07 by Eclipse SUMO netedit Version 1.20.0
<configuration xmlns:xsi="http://www.w3.org/2001/XMLSchema-instance" xsi:noNamespaceSchemaLocation="http://sumo.dlr.de/xsd/neteditConfiguration.xsd">

    <input>
        <sumo-net-file value="pittsburghsmaller2everything.net.xml"/>
    </input>

    <output>
        <output-file value="pittsburghsmaller2everything.net.xml"/>
        <output.street-names value="true"/>
    </output>

    <processing>
        <geometry.min-radius.fix.railways value="false"/>
        <geometry.max-grade.fix value="false"/>
        <offset.disable-normalization value="true"/>
        <lefthand value="0"/>
    </processing>

    <junctions>
        <no-turnarounds value="true"/>
        <junctions.corner-detail value="5"/>
        <junctions.limit-turn-speed value="5.50"/>
        <rectangular-lane-cut value="0"/>
    </junctions>

    <pedestrian>
        <walkingareas value="0"/>
    </pedestrian>

</configuration>
-->

<net version="1.20" junctionCornerDetail="5" limitTurnSpeed="5.50" xmlns:xsi="http://www.w3.org/2001/XMLSchema-instance" xsi:noNamespaceSchemaLocation="http://sumo.dlr.de/xsd/net_file.xsd">

    <location netOffset="-584408.72,-4476613.85" convBoundary="-518.00,-829.00,1889.88,1660.08" origBoundary="-80.004731,40.435799,-79.988268,40.445849" projParameter="+proj=utm +zone=17 +ellps=WGS84 +datum=WGS84 +units=m +no_defs"/>

    <type id="highway.primary" priority="12" numLanes="2" speed="27.78" disallow="tram rail_urban rail rail_electric rail_fast ship" oneway="0"/>
    <type id="highway.residential" priority="3" numLanes="1" speed="13.89" disallow="tram rail_urban rail rail_electric rail_fast ship" oneway="0"/>
    <type id="highway.secondary" priority="11" numLanes="1" speed="27.78" disallow="tram rail_urban rail rail_electric rail_fast ship" oneway="0"/>
    <type id="highway.tertiary" priority="10" numLanes="1" speed="22.22" disallow="tram rail_urban rail rail_electric rail_fast ship" oneway="0"/>

    <edge id=":104573441_0" function="internal">
        <lane id=":104573441_0_0" index="0" disallow="tram rail_urban rail rail_electric rail_fast ship cable_car subway" speed="20.84" length="8.33" shape="857.12,351.91 854.70,352.41 853.19,353.52 851.69,354.65 849.26,355.21"/>
        <lane id=":104573441_0_1" index="1" disallow="tram rail_urban rail rail_electric rail_fast ship cable_car subway" speed="20.84" length="8.33" shape="857.12,351.91 849.18,352.01"/>
    </edge>
    <edge id=":4459167069_0" function="internal">
        <lane id=":4459167069_0_0" index="0" disallow="tram rail_urban rail rail_electric rail_fast ship cable_car subway" speed="27.78" length="0.30" shape="724.72,377.91 724.45,378.04"/>
        <lane id=":4459167069_0_1" index="1" disallow="tram rail_urban rail rail_electric rail_fast ship cable_car subway" speed="27.78" length="0.30" shape="723.35,375.02 723.08,375.15"/>
    </edge>
    <edge id=":4459167069_2" function="internal">
        <lane id=":4459167069_2_0" index="0" disallow="tram rail_urban rail rail_electric rail_fast ship cable_car subway" speed="27.78" length="0.30" shape="720.34,369.36 720.61,369.24"/>
        <lane id=":4459167069_2_1" index="1" disallow="tram rail_urban rail rail_electric rail_fast ship cable_car subway" speed="27.78" length="0.30" shape="721.71,372.26 721.98,372.13"/>
    </edge>
    <edge id=":4491753305_0" function="internal">
        <lane id=":4491753305_0_0" index="0" speed="13.38" length="5.55" shape="857.84,583.34 857.83,582.28 857.75,581.55 857.56,580.85 857.18,579.86"/>
        <lane id=":4491753305_0_1" index="1" speed="13.89" length="5.55" shape="857.84,583.34 860.16,578.69"/>
        <lane id=":4491753305_0_2" index="2" speed="13.89" length="5.55" shape="857.84,583.34 863.14,577.52"/>
    </edge>
    <edge id=":4599846706_0" function="internal">
        <lane id=":4599846706_0_0" index="0" speed="13.89" length="9.26" shape="780.89,640.93 780.86,638.39 780.66,636.64 780.15,634.96 779.17,632.62"/>
        <lane id=":4599846706_0_1" index="1" speed="13.89" length="9.26" shape="780.89,640.93 781.35,638.02 782.22,635.99 782.73,634.04 782.11,631.35"/>
    </edge>
    <edge id=":cluster_104472649_1362263119_684800917_8484285016_8484318434_8486322131_8486322133_0" function="internal">
        <lane id=":cluster_104472649_1362263119_684800917_8484285016_8484318434_8486322131_8486322133_0_0" index="0" disallow="tram rail_urban rail rail_electric rail_fast ship cable_car subway" speed="6.41" length="9.04" shape="835.47,524.64 834.24,522.47 832.62,521.25 830.61,520.98 828.21,521.66"/>
    </edge>
    <edge id=":cluster_104472649_1362263119_684800917_8484285016_8484318434_8486322131_8486322133_1" function="internal">
        <lane id=":cluster_104472649_1362263119_684800917_8484285016_8484318434_8486322131_8486322133_1_0" index="0" disallow="tram rail_urban rail rail_electric rail_fast ship cable_car subway" speed="20.84" length="25.16" shape="835.47,524.64 833.14,517.21 832.20,511.55 831.42,506.34 829.56,500.26"/>
        <lane id=":cluster_104472649_1362263119_684800917_8484285016_8484318434_8486322131_8486322133_1_1" index="1" disallow="tram rail_urban rail rail_electric rail_fast ship cable_car subway" speed="20.84" length="25.16" shape="838.45,523.47 836.11,516.03 835.17,510.36 834.39,505.15 832.53,499.07"/>
    </edge>
    <edge id=":cluster_104472649_1362263119_684800917_8484285016_8484318434_8486322131_8486322133_3" function="internal">
        <lane id=":cluster_104472649_1362263119_684800917_8484285016_8484318434_8486322131_8486322133_3_0" index="0" disallow="tram rail_urban rail rail_electric rail_fast ship cable_car subway" speed="9.74" length="11.04" shape="841.43,522.30 840.12,516.77 840.87,512.08 841.23,511.59"/>
    </edge>
    <edge id=":cluster_104472649_1362263119_684800917_8484285016_8484318434_8486322131_8486322133_14" function="internal">
        <lane id=":cluster_104472649_1362263119_684800917_8484285016_8484318434_8486322131_8486322133_14_0" index="0" disallow="tram rail_urban rail rail_electric rail_fast ship cable_car subway" speed="9.74" length="9.86" shape="841.23,511.59 843.68,508.24 848.54,505.23"/>
    </edge>
    <edge id=":cluster_104472649_1362263119_684800917_8484285016_8484318434_8486322131_8486322133_4" function="internal">
        <lane id=":cluster_104472649_1362263119_684800917_8484285016_8484318434_8486322131_8486322133_4_0" index="0" disallow="tram rail_urban rail rail_electric rail_fast ship cable_car subway" speed="7.24" length="11.08" shape="851.34,510.99 848.70,512.60 847.16,514.63 846.72,517.08 847.38,519.95"/>
    </edge>
    <edge id=":cluster_104472649_1362263119_684800917_8484285016_8484318434_8486322131_8486322133_5" function="internal">
        <lane id=":cluster_104472649_1362263119_684800917_8484285016_8484318434_8486322131_8486322133_5_0" index="0" disallow="tram rail_urban rail rail_electric rail_fast ship cable_car subway" speed="27.78" length="25.47" shape="851.34,510.99 828.21,521.66"/>
    </edge>
    <edge id=":cluster_104472649_1362263119_684800917_8484285016_8484318434_8486322131_8486322133_6" function="internal">
        <lane id=":cluster_104472649_1362263119_684800917_8484285016_8484318434_8486322131_8486322133_6_0" index="0" disallow="tram rail_urban rail rail_electric rail_fast ship cable_car subway" speed="9.83" length="10.07" shape="849.94,508.11 844.47,509.47 840.14,508.50"/>
    </edge>
    <edge id=":cluster_104472649_1362263119_684800917_8484285016_8484318434_8486322131_8486322133_15" function="internal">
        <lane id=":cluster_104472649_1362263119_684800917_8484285016_8484318434_8486322131_8486322133_15_0" index="0" disallow="tram rail_urban rail rail_electric rail_fast ship cable_car subway" speed="9.83" length="12.39" shape="840.14,508.50 839.74,508.41 835.76,504.95 832.53,499.07"/>
    </edge>
    <edge id=":cluster_104472649_1362263119_684800917_8484285016_8484318434_8486322131_8486322133_7" function="internal">
        <lane id=":cluster_104472649_1362263119_684800917_8484285016_8484318434_8486322131_8486322133_7_0" index="0" disallow="tram rail_urban rail rail_electric rail_fast ship cable_car subway" speed="6.36" length="9.04" shape="838.47,496.67 839.72,498.83 841.36,500.02 843.36,500.24 845.74,499.47"/>
    </edge>
    <edge id=":cluster_104472649_1362263119_684800917_8484285016_8484318434_8486322131_8486322133_8" function="internal">
        <lane id=":cluster_104472649_1362263119_684800917_8484285016_8484318434_8486322131_8486322133_8_0" index="0" disallow="tram rail_urban rail rail_electric rail_fast ship cable_car subway" speed="20.84" length="24.93" shape="838.47,496.67 847.38,519.95"/>
    </edge>
    <edge id=":cluster_104472649_1362263119_684800917_8484285016_8484318434_8486322131_8486322133_9" function="internal">
        <lane id=":cluster_104472649_1362263119_684800917_8484285016_8484318434_8486322131_8486322133_9_0" index="0" disallow="tram rail_urban rail rail_electric rail_fast ship cable_car subway" speed="10.71" length="7.75" shape="835.50,497.87 837.15,504.59 837.02,505.41"/>
    </edge>
    <edge id=":cluster_104472649_1362263119_684800917_8484285016_8484318434_8486322131_8486322133_16" function="internal">
        <lane id=":cluster_104472649_1362263119_684800917_8484285016_8484318434_8486322131_8486322133_16_0" index="0" disallow="tram rail_urban rail rail_electric rail_fast ship cable_car subway" speed="10.71" length="17.79" shape="837.02,505.41 836.27,510.31 832.86,515.03 826.91,518.74"/>
    </edge>
    <edge id=":cluster_104472649_1362263119_684800917_8484285016_8484318434_8486322131_8486322133_10" function="internal">
        <lane id=":cluster_104472649_1362263119_684800917_8484285016_8484318434_8486322131_8486322133_10_0" index="0" disallow="tram rail_urban rail rail_electric rail_fast ship cable_car subway" speed="7.80" length="13.08" shape="823.01,509.97 826.75,507.88 829.09,505.57 830.03,503.03 829.56,500.26"/>
    </edge>
    <edge id=":cluster_104472649_1362263119_684800917_8484285016_8484318434_8486322131_8486322133_11" function="internal">
        <lane id=":cluster_104472649_1362263119_684800917_8484285016_8484318434_8486322131_8486322133_11_0" index="0" disallow="tram rail_urban rail rail_electric rail_fast ship cable_car subway" speed="27.78" length="25.09" shape="823.01,509.97 845.74,499.47"/>
        <lane id=":cluster_104472649_1362263119_684800917_8484285016_8484318434_8486322131_8486322133_11_1" index="1" disallow="tram rail_urban rail rail_electric rail_fast ship cable_car subway" speed="27.78" length="25.09" shape="824.31,512.89 847.14,502.35"/>
    </edge>
    <edge id=":cluster_104472649_1362263119_684800917_8484285016_8484318434_8486322131_8486322133_13" function="internal">
        <lane id=":cluster_104472649_1362263119_684800917_8484285016_8484318434_8486322131_8486322133_13_0" index="0" disallow="tram rail_urban rail rail_electric rail_fast ship cable_car subway" speed="9.77" length="12.58" shape="825.61,515.82 832.12,513.78 837.42,513.98 837.81,514.21"/>
    </edge>
    <edge id=":cluster_104472649_1362263119_684800917_8484285016_8484318434_8486322131_8486322133_17" function="internal">
        <lane id=":cluster_104472649_1362263119_684800917_8484285016_8484318434_8486322131_8486322133_17_0" index="0" disallow="tram rail_urban rail rail_electric rail_fast ship cable_car subway" speed="9.77" length="9.83" shape="837.81,514.21 841.52,516.43 844.41,521.12"/>
    </edge>
    <edge id=":cluster_104572618_8484452947_8484452988_8484452989_8484452990_0" function="internal">
        <lane id=":cluster_104572618_8484452947_8484452988_8484452989_8484452990_0_0" index="0" disallow="tram rail_urban rail rail_electric rail_fast ship cable_car subway" speed="18.05" length="17.70" shape="579.36,623.27 582.91,622.90 586.44,621.82 590.48,620.04 595.58,617.58"/>
        <lane id=":cluster_104572618_8484452947_8484452988_8484452989_8484452990_0_1" index="1" disallow="tram rail_urban rail rail_electric rail_fast ship cable_car subway" speed="18.05" length="17.70" shape="579.36,623.27 583.09,623.37 587.02,623.31 591.53,622.53 596.97,620.47"/>
    </edge>
    <edge id=":cluster_104572636_8484443882_8484452939_8484452945_8484452946_0" function="internal">
        <lane id=":cluster_104572636_8484443882_8484452939_8484452945_8484452946_0_0" index="0" disallow="tram rail_urban rail rail_electric rail_fast ship cable_car subway" speed="7.10" length="10.33" shape="675.51,597.14 673.80,594.89 671.77,593.67 669.42,593.47 666.76,594.29"/>
    </edge>
    <edge id=":cluster_104572636_8484443882_8484452939_8484452945_8484452946_1" function="internal">
        <lane id=":cluster_104572636_8484443882_8484452939_8484452945_8484452946_1_0" index="0" speed="13.89" length="21.62" shape="675.51,597.14 665.13,578.17"/>
    </edge>
    <edge id=":cluster_104572636_8484443882_8484452939_8484452945_8484452946_2" function="internal">
        <lane id=":cluster_104572636_8484443882_8484452939_8484452945_8484452946_2_0" index="0" disallow="tram rail_urban rail rail_electric rail_fast ship cable_car subway" speed="9.17" length="10.62" shape="678.30,595.56 676.31,590.46 676.49,586.04 676.87,585.43"/>
    </edge>
    <edge id=":cluster_104572636_8484443882_8484452939_8484452945_8484452946_12" function="internal">
        <lane id=":cluster_104572636_8484443882_8484452939_8484452945_8484452946_12_0" index="0" disallow="tram rail_urban rail rail_electric rail_fast ship cable_car subway" speed="9.17" length="9.19" shape="676.87,585.43 678.84,582.28 683.36,579.20"/>
    </edge>
    <edge id=":cluster_104572636_8484443882_8484452939_8484452945_8484452946_3" function="internal">
        <lane id=":cluster_104572636_8484443882_8484452939_8484452945_8484452946_3_0" index="0" disallow="tram rail_urban rail rail_electric rail_fast ship cable_car subway" speed="6.38" length="9.04" shape="686.18,584.95 684.12,586.35 683.05,588.07 682.96,590.09 683.87,592.41"/>
    </edge>
    <edge id=":cluster_104572636_8484443882_8484452939_8484452945_8484452946_4" function="internal">
        <lane id=":cluster_104572636_8484443882_8484452939_8484452945_8484452946_4_0" index="0" disallow="tram rail_urban rail rail_electric rail_fast ship cable_car subway" speed="22.22" length="21.55" shape="686.18,584.95 666.76,594.29"/>
    </edge>
    <edge id=":cluster_104572636_8484443882_8484452939_8484452945_8484452946_5" function="internal">
        <lane id=":cluster_104572636_8484443882_8484452939_8484452945_8484452946_5_0" index="0" disallow="tram rail_urban rail rail_electric rail_fast ship cable_car subway" speed="9.51" length="10.80" shape="684.77,582.07 679.57,583.77 675.03,583.44 674.37,583.03"/>
    </edge>
    <edge id=":cluster_104572636_8484443882_8484452939_8484452945_8484452946_13" function="internal">
        <lane id=":cluster_104572636_8484443882_8484452939_8484452945_8484452946_13_0" index="0" disallow="tram rail_urban rail rail_electric rail_fast ship cable_car subway" speed="9.51" length="9.20" shape="674.37,583.03 671.16,581.07 667.96,576.67"/>
    </edge>
    <edge id=":cluster_104572636_8484443882_8484452939_8484452945_8484452946_6" function="internal">
        <lane id=":cluster_104572636_8484443882_8484452939_8484452945_8484452946_6_0" index="0" disallow="tram rail_urban rail rail_electric rail_fast ship cable_car subway" speed="6.86" length="9.91" shape="673.61,573.67 675.20,575.85 677.12,577.01 679.37,577.17 681.95,576.33"/>
    </edge>
    <edge id=":cluster_104572636_8484443882_8484452939_8484452945_8484452946_7" function="internal">
        <lane id=":cluster_104572636_8484443882_8484452939_8484452945_8484452946_7_0" index="0" speed="13.89" length="21.36" shape="673.61,573.67 683.87,592.41"/>
    </edge>
    <edge id=":cluster_104572636_8484443882_8484452939_8484452945_8484452946_8" function="internal">
        <lane id=":cluster_104572636_8484443882_8484452939_8484452945_8484452946_8_0" index="0" disallow="tram rail_urban rail rail_electric rail_fast ship cable_car subway" speed="9.19" length="10.33" shape="670.78,575.17 672.62,580.29 672.34,584.70 672.08,585.10"/>
    </edge>
    <edge id=":cluster_104572636_8484443882_8484452939_8484452945_8484452946_14" function="internal">
        <lane id=":cluster_104572636_8484443882_8484452939_8484452945_8484452946_14_0" index="0" disallow="tram rail_urban rail rail_electric rail_fast ship cable_car subway" speed="9.19" length="9.38" shape="672.08,585.10 669.93,588.40 665.40,591.40"/>
    </edge>
    <edge id=":cluster_104572636_8484443882_8484452939_8484452945_8484452946_9" function="internal">
        <lane id=":cluster_104572636_8484443882_8484452939_8484452945_8484452946_9_0" index="0" disallow="tram rail_urban rail rail_electric rail_fast ship cable_car subway" speed="6.41" length="9.04" shape="662.66,585.61 664.74,584.24 665.84,582.54 665.97,580.52 665.13,578.17"/>
    </edge>
    <edge id=":cluster_104572636_8484443882_8484452939_8484452945_8484452946_10" function="internal">
        <lane id=":cluster_104572636_8484443882_8484452939_8484452945_8484452946_10_0" index="0" disallow="tram rail_urban rail rail_electric rail_fast ship cable_car subway" speed="22.22" length="21.41" shape="662.66,585.61 681.95,576.33"/>
    </edge>
    <edge id=":cluster_104572636_8484443882_8484452939_8484452945_8484452946_11" function="internal">
        <lane id=":cluster_104572636_8484443882_8484452939_8484452945_8484452946_11_0" index="0" disallow="tram rail_urban rail rail_electric rail_fast ship cable_car subway" speed="9.69" length="10.67" shape="664.03,588.51 669.22,586.90 673.80,587.27 674.35,587.60"/>
    </edge>
    <edge id=":cluster_104572636_8484443882_8484452939_8484452945_8484452946_15" function="internal">
        <lane id=":cluster_104572636_8484443882_8484452939_8484452945_8484452946_15_0" index="0" disallow="tram rail_urban rail rail_electric rail_fast ship cable_car subway" speed="9.69" length="9.44" shape="674.35,587.60 677.75,589.64 681.08,593.99"/>
    </edge>
    <edge id=":cluster_104572642_4599846707_8484284983_8484443873_8484443874_8484443879_8484443880_8484443881_0" function="internal">
        <lane id=":cluster_104572642_4599846707_8484284983_8484443873_8484443874_8484443879_8484443880_8484443881_0_0" index="0" disallow="tram rail_urban rail rail_electric rail_fast ship cable_car subway" speed="6.41" length="9.04" shape="748.18,560.93 746.88,558.81 745.22,557.65 743.20,557.45 740.83,558.21"/>
    </edge>
    <edge id=":cluster_104572642_4599846707_8484284983_8484443873_8484443874_8484443879_8484443880_8484443881_1" function="internal">
        <lane id=":cluster_104572642_4599846707_8484284983_8484443873_8484443874_8484443879_8484443880_8484443881_1_0" index="0" speed="13.89" length="23.48" shape="748.18,560.93 737.95,539.80"/>
    </edge>
    <edge id=":cluster_104572642_4599846707_8484284983_8484443873_8484443874_8484443879_8484443880_8484443881_2" function="internal">
        <lane id=":cluster_104572642_4599846707_8484284983_8484443873_8484443874_8484443879_8484443880_8484443881_2_0" index="0" disallow="tram rail_urban rail rail_electric rail_fast ship cable_car subway" speed="9.31" length="10.15" shape="751.12,559.66 749.67,554.34 750.31,549.88 750.38,549.78"/>
    </edge>
    <edge id=":cluster_104572642_4599846707_8484284983_8484443873_8484443874_8484443879_8484443880_8484443881_12" function="internal">
        <lane id=":cluster_104572642_4599846707_8484284983_8484443873_8484443874_8484443879_8484443880_8484443881_12_0" index="0" disallow="tram rail_urban rail rail_electric rail_fast ship cable_car subway" speed="9.31" length="9.91" shape="750.38,549.78 753.02,546.28 757.82,543.55"/>
    </edge>
    <edge id=":cluster_104572642_4599846707_8484284983_8484443873_8484443874_8484443879_8484443880_8484443881_3" function="internal">
        <lane id=":cluster_104572642_4599846707_8484284983_8484443873_8484443874_8484443879_8484443880_8484443881_3_0" index="0" disallow="tram rail_urban rail rail_electric rail_fast ship cable_car subway" speed="6.58" length="9.48" shape="760.17,549.51 757.90,550.80 756.61,552.50 756.31,554.61 756.99,557.12"/>
    </edge>
    <edge id=":cluster_104572642_4599846707_8484284983_8484443873_8484443874_8484443879_8484443880_8484443881_4" function="internal">
        <lane id=":cluster_104572642_4599846707_8484284983_8484443873_8484443874_8484443879_8484443880_8484443881_4_0" index="0" disallow="tram rail_urban rail rail_electric rail_fast ship cable_car subway" speed="25.00" length="21.21" shape="760.17,549.51 740.83,558.21"/>
    </edge>
    <edge id=":cluster_104572642_4599846707_8484284983_8484443873_8484443874_8484443879_8484443880_8484443881_5" function="internal">
        <lane id=":cluster_104572642_4599846707_8484284983_8484443873_8484443874_8484443879_8484443880_8484443881_5_0" index="0" disallow="tram rail_urban rail rail_electric rail_fast ship cable_car subway" speed="10.31" length="12.52" shape="759.00,546.53 753.54,547.72 748.68,546.75 747.09,545.57"/>
    </edge>
    <edge id=":cluster_104572642_4599846707_8484284983_8484443873_8484443874_8484443879_8484443880_8484443881_13" function="internal">
        <lane id=":cluster_104572642_4599846707_8484284983_8484443873_8484443874_8484443879_8484443880_8484443881_13_0" index="0" disallow="tram rail_urban rail rail_electric rail_fast ship cable_car subway" speed="10.31" length="9.73" shape="747.09,545.57 744.43,543.61 740.79,538.31"/>
    </edge>
    <edge id=":cluster_104572642_4599846707_8484284983_8484443873_8484443874_8484443879_8484443880_8484443881_6" function="internal">
        <lane id=":cluster_104572642_4599846707_8484284983_8484443873_8484443874_8484443879_8484443880_8484443881_6_0" index="0" disallow="tram rail_urban rail rail_electric rail_fast ship cable_car subway" speed="7.19" length="10.33" shape="746.46,535.34 747.97,537.29 749.97,538.31 752.48,538.42 755.48,537.60"/>
    </edge>
    <edge id=":cluster_104572642_4599846707_8484284983_8484443873_8484443874_8484443879_8484443880_8484443881_7" function="internal">
        <lane id=":cluster_104572642_4599846707_8484284983_8484443873_8484443874_8484443879_8484443880_8484443881_7_0" index="0" speed="13.89" length="24.20" shape="746.46,535.34 756.99,557.12"/>
    </edge>
    <edge id=":cluster_104572642_4599846707_8484284983_8484443873_8484443874_8484443879_8484443880_8484443881_8" function="internal">
        <lane id=":cluster_104572642_4599846707_8484284983_8484443873_8484443874_8484443879_8484443880_8484443881_8_0" index="0" disallow="tram rail_urban rail rail_electric rail_fast ship cable_car subway" speed="9.68" length="12.75" shape="743.62,536.83 745.94,542.90 746.01,548.01 745.48,549.02"/>
    </edge>
    <edge id=":cluster_104572642_4599846707_8484284983_8484443873_8484443874_8484443879_8484443880_8484443881_14" function="internal">
        <lane id=":cluster_104572642_4599846707_8484284983_8484443873_8484443874_8484443879_8484443880_8484443881_14_0" index="0" disallow="tram rail_urban rail rail_electric rail_fast ship cable_car subway" speed="9.68" length="8.97" shape="745.48,549.02 743.84,552.16 739.43,555.33"/>
    </edge>
    <edge id=":cluster_104572642_4599846707_8484284983_8484443873_8484443874_8484443879_8484443880_8484443881_9" function="internal">
        <lane id=":cluster_104572642_4599846707_8484284983_8484443873_8484443874_8484443879_8484443880_8484443881_9_0" index="0" disallow="tram rail_urban rail rail_electric rail_fast ship cable_car subway" speed="7.11" length="11.22" shape="736.63,549.58 738.64,548.03 739.53,545.88 739.30,543.14 737.95,539.80"/>
    </edge>
    <edge id=":cluster_104572642_4599846707_8484284983_8484443873_8484443874_8484443879_8484443880_8484443881_10" function="internal">
        <lane id=":cluster_104572642_4599846707_8484284983_8484443873_8484443874_8484443879_8484443880_8484443881_10_0" index="0" disallow="tram rail_urban rail rail_electric rail_fast ship cable_car subway" speed="25.00" length="22.42" shape="736.63,549.58 741.90,546.44 745.53,543.48 749.41,540.58 755.48,537.60"/>
    </edge>
    <edge id=":cluster_104572642_4599846707_8484284983_8484443873_8484443874_8484443879_8484443880_8484443881_11" function="internal">
        <lane id=":cluster_104572642_4599846707_8484284983_8484443873_8484443874_8484443879_8484443880_8484443881_11_0" index="0" disallow="tram rail_urban rail rail_electric rail_fast ship cable_car subway" speed="9.19" length="10.78" shape="738.03,552.45 743.20,550.80 747.60,551.23 748.36,551.77"/>
    </edge>
    <edge id=":cluster_104572642_4599846707_8484284983_8484443873_8484443874_8484443879_8484443880_8484443881_15" function="internal">
        <lane id=":cluster_104572642_4599846707_8484284983_8484443873_8484443874_8484443879_8484443880_8484443881_15_0" index="0" disallow="tram rail_urban rail rail_electric rail_fast ship cable_car subway" speed="9.19" length="8.92" shape="748.36,551.77 751.21,553.77 754.06,558.39"/>
    </edge>
    <edge id=":cluster_104572699_3277882116_0" function="internal">
        <lane id=":cluster_104572699_3277882116_0_0" index="0" disallow="tram rail_urban rail rail_electric rail_fast ship cable_car subway" speed="7.86" length="9.45" shape="899.03,467.66 897.24,468.05 895.58,469.23 894.05,471.20 892.64,473.95"/>
        <lane id=":cluster_104572699_3277882116_0_1" index="1" disallow="tram rail_urban rail rail_electric rail_fast ship cable_car subway" speed="8.53" length="11.26" shape="899.03,467.66 895.76,467.97 893.11,468.92 891.09,470.49 889.70,472.70"/>
    </edge>
    <edge id=":cluster_104650336_4599846713_5308524119_5308525596_5308525747_8484067051_8484284962_8484284963_0" function="internal">
        <lane id=":cluster_104650336_4599846713_5308524119_5308525596_5308525747_8484067051_8484284962_8484284963_0_0" index="0" speed="10.20" length="5.73" shape="599.54,229.28 599.56,230.38 599.65,231.13 599.91,231.85 600.39,232.84"/>
        <lane id=":cluster_104650336_4599846713_5308524119_5308525596_5308525747_8484067051_8484284962_8484284963_0_1" index="1" speed="12.20" length="5.73" shape="599.54,229.28 597.53,234.28"/>
        <lane id=":cluster_104650336_4599846713_5308524119_5308525596_5308525747_8484067051_8484284962_8484284963_0_2" index="2" speed="13.89" length="5.73" shape="599.54,229.28 594.67,235.72"/>
    </edge>
    <edge id=":cluster_104650348_8484067046_8484067048_8484067049_8484067050_0" function="internal">
        <lane id=":cluster_104650348_8484067046_8484067048_8484067049_8484067050_0_0" index="0" disallow="tram rail_urban rail rail_electric rail_fast ship cable_car subway" speed="20.84" length="16.62" shape="706.16,184.27 706.47,187.74 707.42,191.05 709.00,194.78 711.22,199.55"/>
        <lane id=":cluster_104650348_8484067046_8484067048_8484067049_8484067050_0_1" index="1" disallow="tram rail_urban rail rail_electric rail_fast ship cable_car subway" speed="20.84" length="16.62" shape="706.16,184.27 706.00,187.91 705.92,191.60 706.49,195.79 708.32,200.90"/>
    </edge>
    <edge id=":cluster_104945598_8484284971_8484443912_8484445225_0" function="internal">
        <lane id=":cluster_104945598_8484284971_8484443912_8484445225_0_0" index="0" disallow="tram rail_urban rail rail_electric rail_fast ship cable_car subway" speed="6.87" length="9.90" shape="554.51,368.93 552.88,366.60 550.99,365.28 548.81,364.99 546.36,365.71"/>
    </edge>
    <edge id=":cluster_104945598_8484284971_8484443912_8484445225_1" function="internal">
        <lane id=":cluster_104945598_8484284971_8484443912_8484445225_1_0" index="0" speed="13.89" length="21.61" shape="554.51,368.93 544.89,349.58"/>
    </edge>
    <edge id=":cluster_104945598_8484284971_8484443912_8484445225_2" function="internal">
        <lane id=":cluster_104945598_8484284971_8484443912_8484445225_2_0" index="0" speed="9.21" length="10.66" shape="557.34,367.45 555.55,362.37 555.84,357.98 556.32,357.25"/>
    </edge>
    <edge id=":cluster_104945598_8484284971_8484443912_8484445225_12" function="internal">
        <lane id=":cluster_104945598_8484284971_8484443912_8484445225_12_0" index="0" speed="9.21" length="8.91" shape="556.32,357.25 558.22,354.28 562.67,351.26"/>
    </edge>
    <edge id=":cluster_104945598_8484284971_8484443912_8484445225_3" function="internal">
        <lane id=":cluster_104945598_8484284971_8484443912_8484445225_3_0" index="0" speed="6.45" length="9.03" shape="565.48,357.01 563.42,358.40 562.32,360.11 562.19,362.14 563.02,364.49"/>
    </edge>
    <edge id=":cluster_104945598_8484284971_8484443912_8484445225_4" function="internal">
        <lane id=":cluster_104945598_8484284971_8484443912_8484445225_4_0" index="0" disallow="tram rail_urban rail rail_electric rail_fast ship cable_car subway" speed="18.05" length="21.00" shape="565.48,357.01 546.36,365.71"/>
    </edge>
    <edge id=":cluster_104945598_8484284971_8484443912_8484445225_5" function="internal">
        <lane id=":cluster_104945598_8484284971_8484443912_8484445225_5_0" index="0" speed="9.32" length="10.71" shape="564.07,354.13 558.94,355.77 554.52,355.33 553.79,354.83"/>
    </edge>
    <edge id=":cluster_104945598_8484284971_8484443912_8484445225_13" function="internal">
        <lane id=":cluster_104945598_8484284971_8484443912_8484445225_13_0" index="0" speed="9.32" length="9.11" shape="553.79,354.83 550.80,352.81 547.78,348.21"/>
    </edge>
    <edge id=":cluster_104945598_8484284971_8484443912_8484445225_6" function="internal">
        <lane id=":cluster_104945598_8484284971_8484443912_8484445225_6_0" index="0" speed="6.60" length="9.41" shape="553.57,345.48 555.01,347.69 556.77,348.91 558.86,349.14 561.27,348.38"/>
    </edge>
    <edge id=":cluster_104945598_8484284971_8484443912_8484445225_7" function="internal">
        <lane id=":cluster_104945598_8484284971_8484443912_8484445225_7_0" index="0" speed="13.89" length="21.22" shape="553.57,345.48 563.02,364.49"/>
    </edge>
    <edge id=":cluster_104945598_8484284971_8484443912_8484445225_8" function="internal">