<?xml version="1.0" encoding="UTF-8"?>
<routes xmlns:xsi="http://www.w3.org/2001/XMLSchema-instance" xsi:noNamespaceSchemaLocation="http://sumo.dlr.de/xsd/routes_file.xsd">

<vType id="noVar" speedFactor="1.0" speedDev="0.0"/>
<trip type="noVar" depart="2" id="Ross-Seventh-Sixth.238" from="Ross-Seventh-Sixth" to="Grant-Forbes-Fourth" via="Ross-Sixth-Fifth Ross-Fifth-Forbes Forbes-Ross-Grant"  />
<trip type="noVar" depart="3" id="Grant-Seventh-Sixth.80" from="Grant-Seventh-Sixth" to="Forbes-WilliamPenn-Smithfield" via="Grant-Sixth-Oliver Grant-Oliver-Fifth Grant-Fifth-Forbes Forbes-Grant-WilliamPenn"  />
<trip type="noVar" depart="3" id="Ross-Seventh-Sixth.304" from="Ross-Seventh-Sixth" to="Ross-Forbes-Fourth" via="Ross-Sixth-Fifth Ross-Fifth-Forbes"  />
<trip type="noVar" depart="4" id="Grant-Seventh-Sixth.103" from="Grant-Seventh-Sixth" to="Sixth-Ross-RHS" via="Sixth-Grant-Ross"  />
<trip type="noVar" depart="4" id="Ross-Seventh-Sixth.293" from="Ross-Seventh-Sixth" to="Grant-Sixth-Seventh" via="Sixth-Ross-Grant"  />
<trip type="noVar" depart="5" id="WilliamPenn-Seventh-Sixth.163" from="WilliamPenn-Seventh-Sixth" to="Sixth-Ross-RHS" via="Sixth-WilliamPenn-Grant Sixth-Grant-Ross"  />
<trip type="noVar" depart="5" id="Ross-Fourth-Forbes.218" from="Ross-Fourth-Forbes" to="Forbes-Ross-RHS"  />
<trip type="noVar" depart="5" id="Ross-Fourth-Forbes.277" from="Ross-Fourth-Forbes" to="Forbes-Ross-RHS"  />
<trip type="noVar" depart="6" id="Oliver-Smithfield-WilliamPenn.172" from="Oliver-Smithfield-WilliamPenn" to="WilliamPenn-Forbes-Fourth" via="WilliamPenn-Oliver-Fifth WilliamPenn-Fifth-Forbes"  />
<trip type="noVar" depart="6" id="Ross-Fourth-Forbes.47" from="Ross-Fourth-Forbes" to="Forbes-Ross-RHS"  />
<trip type="noVar" depart="9" id="Oliver-Smithfield-WilliamPenn.160" from="Oliver-Smithfield-WilliamPenn" to="Fifth-WilliamPenn-Smithfield" via="WilliamPenn-Oliver-Fifth"  />
<trip type="noVar" depart="11" id="WilliamPenn-Seventh-Sixth.49" from="WilliamPenn-Seventh-Sixth" to="Sixth-WilliamPenn-Smithfield"  />
<trip type="noVar" depart="11" id="Ross-Fourth-Forbes.130" from="Ross-Fourth-Forbes" to="Sixth-WilliamPenn-Smithfield" via="Ross-Forbes-Fifth Ross-Fifth-Sixth Sixth-Ross-Grant Sixth-Grant-WilliamPenn"  />
<trip type="noVar" depart="12" id="Oliver-Smithfield-WilliamPenn.54" from="Oliver-Smithfield-WilliamPenn" to="Grant-Sixth-Seventh" via="Oliver-WilliamPenn-Grant Grant-Oliver-Sixth"  />
<trip type="noVar" depart="12" id="Fifth-RHS-Ross.115" from="Fifth-RHS-Ross" to="Ross-Forbes-Fourth" via="Fifth-Ross-Grant Grant-Fifth-Forbes Forbes-Grant-Ross"  />
<trip type="noVar" depart="15" id="Grant-Seventh-Sixth.248" from="Grant-Seventh-Sixth" to="Grant-Forbes-Fourth" via="Grant-Sixth-Oliver Grant-Oliver-Fifth Grant-Fifth-Forbes"  />
<trip type="noVar" depart="15" id="Grant-Fourth-Forbes.231" from="Grant-Fourth-Forbes" to="Grant-Sixth-Seventh" via="Grant-Forbes-Fifth Grant-Fifth-Oliver Grant-Oliver-Sixth"  />
<trip type="noVar" depart="15" id="Grant-Fourth-Forbes.261" from="Grant-Fourth-Forbes" to="Forbes-Ross-RHS" via="Forbes-Grant-Ross"  />
<trip type="noVar" depart="15" id="Fifth-RHS-Ross.161" from="Fifth-RHS-Ross" to="Fifth-WilliamPenn-Smithfield" via="Fifth-Ross-Grant Fifth-Grant-WilliamPenn"  />
<trip type="noVar" depart="15" id="Ross-Fourth-Forbes.13" from="Ross-Fourth-Forbes" to="Ross-Sixth-Seventh" via="Ross-Forbes-Fifth Ross-Fifth-Sixth"  />
<trip type="noVar" depart="16" id="Grant-Seventh-Sixth.189" from="Grant-Seventh-Sixth" to="Sixth-Ross-RHS" via="Sixth-Grant-Ross"  />
<trip type="noVar" depart="16" id="Sixth-Smithfield-WilliamPenn.171" from="Sixth-Smithfield-WilliamPenn" to="Sixth-Ross-RHS" via="Sixth-WilliamPenn-Grant Sixth-Grant-Ross"  />
<trip type="noVar" depart="16" id="Forbes-RHS-Ross.258" from="Forbes-RHS-Ross" to="Forbes-WilliamPenn-Smithfield" via="Forbes-Ross-Grant Forbes-Grant-WilliamPenn"  />
<trip type="noVar" depart="19" id="Sixth-RHS-Ross.119" from="Sixth-RHS-Ross" to="Sixth-WilliamPenn-Smithfield" via="Sixth-Ross-Grant Sixth-Grant-WilliamPenn"  />
<trip type="noVar" depart="20" id="Forbes-RHS-Ross.292" from="Forbes-RHS-Ross" to="Grant-Forbes-Fourth" via="Forbes-Ross-Grant"  />
<trip type="noVar" depart="22" id="Grant-Seventh-Sixth.56" from="Grant-Seventh-Sixth" to="Grant-Forbes-Fourth" via="Grant-Sixth-Oliver Grant-Oliver-Fifth Grant-Fifth-Forbes"  />
<trip type="noVar" depart="22" id="Grant-Seventh-Sixth.157" from="Grant-Seventh-Sixth" to="Grant-Forbes-Fourth" via="Grant-Sixth-Oliver Grant-Oliver-Fifth Grant-Fifth-Forbes"  />
<trip type="noVar" depart="22" id="Ross-Fourth-Forbes.31" from="Ross-Fourth-Forbes" to="Forbes-Ross-RHS"  />
<trip type="noVar" depart="23" id="Grant-Seventh-Sixth.274" from="Grant-Seventh-Sixth" to="Grant-Forbes-Fourth" via="Grant-Sixth-Oliver Grant-Oliver-Fifth Grant-Fifth-Forbes"  />
<trip type="noVar" depart="23" id="Grant-Fourth-Forbes.217" from="Grant-Fourth-Forbes" to="Forbes-Ross-RHS" via="Forbes-Grant-Ross"  />
<trip type="noVar" depart="24" id="Sixth-RHS-Ross.206" from="Sixth-RHS-Ross" to="Grant-Sixth-Seventh" via="Sixth-Ross-Grant"  />
<trip type="noVar" depart="25" id="Grant-Fourth-Forbes.129" from="Grant-Fourth-Forbes" to="Fifth-WilliamPenn-Smithfield" via="Grant-Forbes-Fifth Grant-Fifth-Oliver Grant-Oliver-Sixth Sixth-Grant-Ross Ross-Sixth-Fifth Fifth-Ross-Grant Fifth-Grant-WilliamPenn"  />
<trip type="noVar" depart="26" id="Forbes-RHS-Ross.151" from="Forbes-RHS-Ross" to="Forbes-WilliamPenn-Smithfield" via="Forbes-Ross-Grant Forbes-Grant-WilliamPenn"  />
<trip type="noVar" depart="26" id="Forbes-RHS-Ross.174" from="Forbes-RHS-Ross" to="Grant-Forbes-Fourth" via="Forbes-Ross-Grant"  />
<trip type="noVar" depart="27" id="Sixth-RHS-Ross.229" from="Sixth-RHS-Ross" to="Grant-Sixth-Seventh" via="Sixth-Ross-Grant"  />
<trip type="noVar" depart="28" id="Sixth-RHS-Ross.168" from="Sixth-RHS-Ross" to="Sixth-WilliamPenn-Smithfield" via="Sixth-Ross-Grant Sixth-Grant-WilliamPenn"  />
<trip type="noVar" depart="31" id="WilliamPenn-Seventh-Sixth.30" from="WilliamPenn-Seventh-Sixth" to="Ross-Sixth-Seventh" via="Sixth-WilliamPenn-Grant Sixth-Grant-Ross"  />
<trip type="noVar" depart="32" id="Sixth-RHS-Ross.243" from="Sixth-RHS-Ross" to="Sixth-WilliamPenn-Smithfield" via="Sixth-Ross-Grant Sixth-Grant-WilliamPenn"  />
<trip type="noVar" depart="33" id="Ross-Seventh-Sixth.49" from="Ross-Seventh-Sixth" to="Fifth-WilliamPenn-Smithfield" via="Sixth-Ross-Grant Sixth-Grant-WilliamPenn WilliamPenn-Sixth-Oliver WilliamPenn-Oliver-Fifth"  />
<trip type="noVar" depart="33" id="Sixth-RHS-Ross.131" from="Sixth-RHS-Ross" to="Sixth-WilliamPenn-Smithfield" via="Sixth-Ross-Grant Sixth-Grant-WilliamPenn"  />
<trip type="noVar" depart="33" id="Ross-Fourth-Forbes.171" from="Ross-Fourth-Forbes" to="Ross-Sixth-Seventh" via="Ross-Forbes-Fifth Ross-Fifth-Sixth"  />
<trip type="noVar" depart="34" id="Fifth-RHS-Ross.180" from="Fifth-RHS-Ross" to="Sixth-Ross-RHS" via="Fifth-Ross-Grant Grant-Fifth-Oliver Grant-Oliver-Sixth Sixth-Grant-Ross"  />
<trip type="noVar" depart="36" id="Grant-Fourth-Forbes.235" from="Grant-Fourth-Forbes" to="Ross-Sixth-Seventh" via="Grant-Forbes-Fifth Grant-Fifth-Oliver Grant-Oliver-Sixth Sixth-Grant-Ross"  />
<trip type="noVar" depart="36" id="Sixth-RHS-Ross.210" from="Sixth-RHS-Ross" to="Sixth-WilliamPenn-Smithfield" via="Sixth-Ross-Grant Sixth-Grant-WilliamPenn"  />
<trip type="noVar" depart="39" id="Sixth-Smithfield-WilliamPenn.21" from="Sixth-Smithfield-WilliamPenn" to="WilliamPenn-Forbes-Fourth" via="WilliamPenn-Sixth-Oliver WilliamPenn-Oliver-Fifth WilliamPenn-Fifth-Forbes"  />
<trip type="noVar" depart="39" id="Sixth-Smithfield-WilliamPenn.138" from="Sixth-Smithfield-WilliamPenn" to="Sixth-Ross-RHS" via="Sixth-WilliamPenn-Grant Sixth-Grant-Ross"  />
<trip type="noVar" depart="39" id="Ross-Seventh-Sixth.64" from="Ross-Seventh-Sixth" to="Ross-Forbes-Fourth" via="Ross-Sixth-Fifth Ross-Fifth-Forbes"  />
<trip type="noVar" depart="40" id="Fifth-Smithfield-WilliamPenn.42" from="Fifth-Smithfield-WilliamPenn" to="Grant-Sixth-Seventh" via="Fifth-WilliamPenn-Grant Grant-Fifth-Oliver Grant-Oliver-Sixth"  />
<trip type="noVar" depart="41" id="Sixth-Smithfield-WilliamPenn.149" from="Sixth-Smithfield-WilliamPenn" to="Grant-Sixth-Seventh" via="Sixth-WilliamPenn-Grant"  />
<trip type="noVar" depart="41" id="Fifth-RHS-Ross.88" from="Fifth-RHS-Ross" to="Fifth-WilliamPenn-Smithfield" via="Fifth-Ross-Grant Fifth-Grant-WilliamPenn"  />
<trip type="noVar" depart="43" id="Grant-Fourth-Forbes.111" from="Grant-Fourth-Forbes" to="Grant-Sixth-Seventh" via="Grant-Forbes-Fifth Grant-Fifth-Oliver Grant-Oliver-Sixth"  />
<trip type="noVar" depart="45" id="Ross-Seventh-Sixth.127" from="Ross-Seventh-Sixth" to="Grant-Sixth-Seventh" via="Sixth-Ross-Grant"  />
<trip type="noVar" depart="48" id="WilliamPenn-Seventh-Sixth.115" from="WilliamPenn-Seventh-Sixth" to="WilliamPenn-Forbes-Fourth" via="WilliamPenn-Sixth-Oliver WilliamPenn-Oliver-Fifth WilliamPenn-Fifth-Forbes"  />
<trip type="noVar" depart="48" id="Forbes-RHS-Ross.156" from="Forbes-RHS-Ross" to="Ross-Forbes-Fourth"  />
<trip type="noVar" depart="49" id="Grant-Seventh-Sixth.307" from="Grant-Seventh-Sixth" to="Grant-Forbes-Fourth" via="Grant-Sixth-Oliver Grant-Oliver-Fifth Grant-Fifth-Forbes"  />
<trip type="noVar" depart="50" id="Sixth-RHS-Ross.213" from="Sixth-RHS-Ross" to="Grant-Forbes-Fourth" via="Sixth-Ross-Grant Grant-Sixth-Oliver Grant-Oliver-Fifth Grant-Fifth-Forbes"  />
<trip type="noVar" depart="51" id="Sixth-RHS-Ross.239" from="Sixth-RHS-Ross" to="Ross-Sixth-Seventh" via="Sixth-Ross-Grant Grant-Sixth-Oliver Grant-Oliver-Fifth Fifth-Grant-Ross Ross-Fifth-Sixth"  />
<trip type="noVar" depart="52" id="Grant-Fourth-Forbes.74" from="Grant-Fourth-Forbes" to="Grant-Sixth-Seventh" via="Grant-Forbes-Fifth Grant-Fifth-Oliver Grant-Oliver-Sixth"  />
<trip type="noVar" depart="53" id="Fifth-RHS-Ross.56" from="Fifth-RHS-Ross" to="Grant-Forbes-Fourth" via="Fifth-Ross-Grant Grant-Fifth-Forbes"  />
<trip type="noVar" depart="53" id="Fifth-RHS-Ross.159" from="Fifth-RHS-Ross" to="Fifth-WilliamPenn-Smithfield" via="Fifth-Ross-Grant Fifth-Grant-WilliamPenn"  />
<trip type="noVar" depart="53" id="Ross-Fourth-Forbes.275" from="Ross-Fourth-Forbes" to="Ross-Sixth-Seventh" via="Ross-Forbes-Fifth Ross-Fifth-Sixth"  />
<trip type="noVar" depart="54" id="Forbes-RHS-Ross.137" from="Forbes-RHS-Ross" to="WilliamPenn-Forbes-Fourth" via="Forbes-Ross-Grant Forbes-Grant-WilliamPenn"  />
<trip type="noVar" depart="57" id="Ross-Seventh-Sixth.57" from="Ross-Seventh-Sixth" to="Sixth-Ross-RHS"  />
<trip type="noVar" depart="60" id="Oliver-Smithfield-WilliamPenn.147" from="Oliver-Smithfield-WilliamPenn" to="WilliamPenn-Forbes-Fourth" via="WilliamPenn-Oliver-Fifth WilliamPenn-Fifth-Forbes"  />
<trip type="noVar" depart="65" id="Sixth-RHS-Ross.58" from="Sixth-RHS-Ross" to="Grant-Sixth-Seventh" via="Sixth-Ross-Grant"  />
<trip type="noVar" depart="66" id="Ross-Seventh-Sixth.184" from="Ross-Seventh-Sixth" to="Sixth-Ross-RHS"  />
<trip type="noVar" depart="67" id="WilliamPenn-Seventh-Sixth.41" from="WilliamPenn-Seventh-Sixth" to="Sixth-WilliamPenn-Smithfield"  />
<trip type="noVar" depart="69" id="Ross-Seventh-Sixth.116" from="Ross-Seventh-Sixth" to="WilliamPenn-Forbes-Fourth" via="Ross-Sixth-Fifth Fifth-Ross-Grant Grant-Fifth-Forbes Forbes-Grant-WilliamPenn"  />
<trip type="noVar" depart="69" id="Ross-Seventh-Sixth.264" from="Ross-Seventh-Sixth" to="Sixth-Ross-RHS"  />
<trip type="noVar" depart="71" id="Oliver-Smithfield-WilliamPenn.168" from="Oliver-Smithfield-WilliamPenn" to="Grant-Sixth-Seventh" via="Oliver-WilliamPenn-Grant Grant-Oliver-Sixth"  />
<trip type="noVar" depart="72" id="Forbes-RHS-Ross.245" from="Forbes-RHS-Ross" to="Grant-Sixth-Seventh" via="Forbes-Ross-Grant Grant-Forbes-Fifth Grant-Fifth-Oliver Grant-Oliver-Sixth"  />
<trip type="noVar" depart="75" id="Sixth-Smithfield-WilliamPenn.92" from="Sixth-Smithfield-WilliamPenn" to="Sixth-Ross-RHS" via="Sixth-WilliamPenn-Grant Sixth-Grant-Ross"  />
<trip type="noVar" depart="77" id="Ross-Seventh-Sixth.60" from="Ross-Seventh-Sixth" to="Ross-Forbes-Fourth" via="Ross-Sixth-Fifth Ross-Fifth-Forbes"  />
<trip type="noVar" depart="79" id="Ross-Fourth-Forbes.155" from="Ross-Fourth-Forbes" to="Ross-Sixth-Seventh" via="Ross-Forbes-Fifth Ross-Fifth-Sixth"  />
<trip type="noVar" depart="81" id="Grant-Fourth-Forbes.283" from="Grant-Fourth-Forbes" to="Fifth-Ross-RHS" via="Grant-Forbes-Fifth Fifth-Grant-Ross"  />
<trip type="noVar" depart="81" id="Fifth-RHS-Ross.111" from="Fifth-RHS-Ross" to="Fifth-WilliamPenn-Smithfield" via="Fifth-Ross-Grant Fifth-Grant-WilliamPenn"  />
<trip type="noVar" depart="82" id="Ross-Seventh-Sixth.87" from="Ross-Seventh-Sixth" to="Grant-Forbes-Fourth" via="Ross-Sixth-Fifth Ross-Fifth-Forbes Forbes-Ross-Grant"  />
<trip type="noVar" depart="82" id="Ross-Fourth-Forbes.239" from="Ross-Fourth-Forbes" to="Forbes-Ross-RHS"  />
<trip type="noVar" depart="83" id="WilliamPenn-Seventh-Sixth.134" from="WilliamPenn-Seventh-Sixth" to="WilliamPenn-Forbes-Fourth" via="WilliamPenn-Sixth-Oliver WilliamPenn-Oliver-Fifth WilliamPenn-Fifth-Forbes"  />
<trip type="noVar" depart="83" id="Ross-Seventh-Sixth.172" from="Ross-Seventh-Sixth" to="Grant-Sixth-Seventh" via="Ross-Sixth-Fifth Fifth-Ross-Grant Grant-Fifth-Oliver Grant-Oliver-Sixth"  />
<trip type="noVar" depart="85" id="Grant-Seventh-Sixth.159" from="Grant-Seventh-Sixth" to="Ross-Sixth-Seventh" via="Sixth-Grant-Ross"  />
<trip type="noVar" depart="86" id="WilliamPenn-Seventh-Sixth.78" from="WilliamPenn-Seventh-Sixth" to="Sixth-WilliamPenn-Smithfield"  />
<trip type="noVar" depart="88" id="Forbes-RHS-Ross.84" from="Forbes-RHS-Ross" to="Ross-Forbes-Fourth"  />
<trip type="noVar" depart="89" id="Grant-Seventh-Sixth.24" from="Grant-Seventh-Sixth" to="Grant-Forbes-Fourth" via="Grant-Sixth-Oliver Grant-Oliver-Fifth Grant-Fifth-Forbes"  />
<trip type="noVar" depart="90" id="WilliamPenn-Seventh-Sixth.16" from="WilliamPenn-Seventh-Sixth" to="Sixth-WilliamPenn-Smithfield"  />
<trip type="noVar" depart="90" id="WilliamPenn-Seventh-Sixth.104" from="WilliamPenn-Seventh-Sixth" to="Grant-Sixth-Seventh" via="Sixth-WilliamPenn-Grant"  />
<trip type="noVar" depart="91" id="Ross-Seventh-Sixth.6" from="Ross-Seventh-Sixth" to="Grant-Forbes-Fourth" via="Ross-Sixth-Fifth Ross-Fifth-Forbes Forbes-Ross-Grant"  />
<trip type="noVar" depart="92" id="Oliver-Smithfield-WilliamPenn.113" from="Oliver-Smithfield-WilliamPenn" to="Grant-Sixth-Seventh" via="Oliver-WilliamPenn-Grant Grant-Oliver-Sixth"  />
<trip type="noVar" depart="93" id="Forbes-RHS-Ross.28" from="Forbes-RHS-Ross" to="Ross-Forbes-Fourth"  />
<trip type="noVar" depart="93" id="Ross-Fourth-Forbes.256" from="Ross-Fourth-Forbes" to="Forbes-WilliamPenn-Smithfield" via="Ross-Forbes-Fifth Ross-Fifth-Sixth Sixth-Ross-Grant Sixth-Grant-WilliamPenn WilliamPenn-Sixth-Oliver WilliamPenn-Oliver-Fifth WilliamPenn-Fifth-Forbes"  />
<trip type="noVar" depart="95" id="Grant-Seventh-Sixth.317" from="Grant-Seventh-Sixth" to="Grant-Forbes-Fourth" via="Grant-Sixth-Oliver Grant-Oliver-Fifth Grant-Fifth-Forbes"  />
<trip type="noVar" depart="96" id="Sixth-Smithfield-WilliamPenn.214" from="Sixth-Smithfield-WilliamPenn" to="Ross-Sixth-Seventh" via="Sixth-WilliamPenn-Grant Sixth-Grant-Ross"  />
<trip type="noVar" depart="100" id="Grant-Fourth-Forbes.140" from="Grant-Fourth-Forbes" to="Grant-Forbes-Fourth" via="Forbes-Grant-Ross Ross-Forbes-Fifth Ross-Fifth-Sixth Sixth-Ross-Grant Grant-Sixth-Oliver Grant-Oliver-Fifth Grant-Fifth-Forbes"  />
<trip type="noVar" depart="101" id="Sixth-RHS-Ross.215" from="Sixth-RHS-Ross" to="Grant-Sixth-Seventh" via="Sixth-Ross-Grant"  />
<trip type="noVar" depart="103" id="Grant-Fourth-Forbes.19" from="Grant-Fourth-Forbes" to="Ross-Forbes-Fourth" via="Grant-Forbes-Fifth Fifth-Grant-Ross Ross-Fifth-Forbes"  />
<trip type="noVar" depart="103" id="Ross-Fourth-Forbes.182" from="Ross-Fourth-Forbes" to="Ross-Sixth-Seventh" via="Ross-Forbes-Fifth Ross-Fifth-Sixth"  />
<trip type="noVar" depart="104" id="Fifth-Smithfield-WilliamPenn.24" from="Fifth-Smithfield-WilliamPenn" to="Grant-Sixth-Seventh" via="Fifth-WilliamPenn-Grant Grant-Fifth-Oliver Grant-Oliver-Sixth"  />
<trip type="noVar" depart="104" id="Ross-Fourth-Forbes.234" from="Ross-Fourth-Forbes" to="Ross-Sixth-Seventh" via="Ross-Forbes-Fifth Ross-Fifth-Sixth"  />
<trip type="noVar" depart="106" id="Ross-Seventh-Sixth.96" from="Ross-Seventh-Sixth" to="Fifth-WilliamPenn-Smithfield" via="Ross-Sixth-Fifth Fifth-Ross-Grant Fifth-Grant-WilliamPenn"  />
<trip type="noVar" depart="108" id="Ross-Seventh-Sixth.90" from="Ross-Seventh-Sixth" to="Ross-Forbes-Fourth" via="Ross-Sixth-Fifth Ross-Fifth-Forbes"  />
<trip type="noVar" depart="108" id="Forbes-RHS-Ross.233" from="Forbes-RHS-Ross" to="Ross-Forbes-Fourth"  />
<trip type="noVar" depart="109" id="Grant-Fourth-Forbes.252" from="Grant-Fourth-Forbes" to="Grant-Sixth-Seventh" via="Grant-Forbes-Fifth Grant-Fifth-Oliver Grant-Oliver-Sixth"  />
<trip type="noVar" depart="110" id="Sixth-Smithfield-WilliamPenn.208" from="Sixth-Smithfield-WilliamPenn" to="Sixth-Ross-RHS" via="Sixth-WilliamPenn-Grant Sixth-Grant-Ross"  />
<trip type="noVar" depart="110" id="Sixth-RHS-Ross.170" from="Sixth-RHS-Ross" to="Oliver-WilliamPenn-Smithfield" via="Sixth-Ross-Grant Sixth-Grant-WilliamPenn WilliamPenn-Sixth-Oliver"  />
<trip type="noVar" depart="110" id="Fifth-RHS-Ross.142" from="Fifth-RHS-Ross" to="Ross-Forbes-Fourth" via="Ross-Fifth-Forbes"  />
<trip type="noVar" depart="116" id="Grant-Seventh-Sixth.140" from="Grant-Seventh-Sixth" to="Sixth-Ross-RHS" via="Sixth-Grant-Ross"  />
<trip type="noVar" depart="116" id="WilliamPenn-Seventh-Sixth.32" from="WilliamPenn-Seventh-Sixth" to="Sixth-WilliamPenn-Smithfield"  />
<trip type="noVar" depart="116" id="Ross-Seventh-Sixth.239" from="Ross-Seventh-Sixth" to="Sixth-Ross-RHS"  />
<trip type="noVar" depart="116" id="Forbes-RHS-Ross.66" from="Forbes-RHS-Ross" to="WilliamPenn-Forbes-Fourth" via="Forbes-Ross-Grant Forbes-Grant-WilliamPenn"  />
<trip type="noVar" depart="117" id="Fifth-RHS-Ross.8" from="Fifth-RHS-Ross" to="Grant-Forbes-Fourth" via="Fifth-Ross-Grant Grant-Fifth-Forbes"  />
<trip type="noVar" depart="118" id="Forbes-RHS-Ross.18" from="Forbes-RHS-Ross" to="Grant-Forbes-Fourth" via="Forbes-Ross-Grant"  />
<trip type="noVar" depart="119" id="Grant-Seventh-Sixth.50" from="Grant-Seventh-Sixth" to="WilliamPenn-Forbes-Fourth" via="Grant-Sixth-Oliver Grant-Oliver-Fifth Grant-Fifth-Forbes Forbes-Grant-WilliamPenn"  />
<trip type="noVar" depart="119" id="Forbes-RHS-Ross.108" from="Forbes-RHS-Ross" to="Ross-Forbes-Fourth"  />
<trip type="noVar" depart="120" id="Ross-Fourth-Forbes.260" from="Ross-Fourth-Forbes" to="Fifth-Ross-RHS" via="Ross-Forbes-Fifth"  />
<trip type="noVar" depart="120" id="Ross-Fourth-Forbes.294" from="Ross-Fourth-Forbes" to="Fifth-Ross-RHS" via="Ross-Forbes-Fifth"  />
<trip type="noVar" depart="121" id="Grant-Fourth-Forbes.108" from="Grant-Fourth-Forbes" to="WilliamPenn-Forbes-Fourth" via="Forbes-Grant-WilliamPenn"  />
<trip type="noVar" depart="121" id="Fifth-RHS-Ross.174" from="Fifth-RHS-Ross" to="Sixth-Ross-RHS" via="Fifth-Ross-Grant Grant-Fifth-Oliver Grant-Oliver-Sixth Sixth-Grant-Ross"  />
<trip type="noVar" depart="122" id="Forbes-Smithfield-WilliamPenn.6" from="Forbes-Smithfield-WilliamPenn" to="WilliamPenn-Forbes-Fourth"  />
<trip type="noVar" depart="124" id="Fifth-RHS-Ross.145" from="Fifth-RHS-Ross" to="Forbes-Ross-RHS" via="Ross-Fifth-Forbes"  />
<trip type="noVar" depart="125" id="Grant-Fourth-Forbes.179" from="Grant-Fourth-Forbes" to="Grant-Sixth-Seventh" via="Grant-Forbes-Fifth Grant-Fifth-Oliver Grant-Oliver-Sixth"  />
<trip type="noVar" depart="128" id="Grant-Fourth-Forbes.44" from="Grant-Fourth-Forbes" to="WilliamPenn-Forbes-Fourth" via="Forbes-Grant-WilliamPenn"  />
<trip type="noVar" depart="129" id="Sixth-Smithfield-WilliamPenn.78" from="Sixth-Smithfield-WilliamPenn" to="Sixth-Ross-RHS" via="Sixth-WilliamPenn-Grant Sixth-Grant-Ross"  />
<trip type="noVar" depart="133" id="Forbes-RHS-Ross.51" from="Forbes-RHS-Ross" to="Grant-Forbes-Fourth" via="Forbes-Ross-Grant"  />
<trip type="noVar" depart="134" id="Grant-Fourth-Forbes.81" from="Grant-Fourth-Forbes" to="Grant-Sixth-Seventh" via="Grant-Forbes-Fifth Grant-Fifth-Oliver Grant-Oliver-Sixth"  />
<trip type="noVar" depart="138" id="Oliver-Smithfield-WilliamPenn.152" from="Oliver-Smithfield-WilliamPenn" to="WilliamPenn-Forbes-Fourth" via="WilliamPenn-Oliver-Fifth WilliamPenn-Fifth-Forbes"  />
<trip type="noVar" depart="138" id="Sixth-RHS-Ross.49" from="Sixth-RHS-Ross" to="Sixth-WilliamPenn-Smithfield" via="Sixth-Ross-Grant Sixth-Grant-WilliamPenn"  />
<trip type="noVar" depart="139" id="WilliamPenn-Seventh-Sixth.107" from="WilliamPenn-Seventh-Sixth" to="Sixth-WilliamPenn-Smithfield"  />
<trip type="noVar" depart="143" id="Forbes-RHS-Ross.186" from="Forbes-RHS-Ross" to="Ross-Forbes-Fourth"  />
<trip type="noVar" depart="145" id="Fifth-RHS-Ross.116" from="Fifth-RHS-Ross" to="Ross-Forbes-Fourth" via="Ross-Fifth-Forbes"  />
<trip type="noVar" depart="146" id="Oliver-Smithfield-WilliamPenn.67" from="Oliver-Smithfield-WilliamPenn" to="Sixth-WilliamPenn-Smithfield" via="Oliver-WilliamPenn-Grant Grant-Oliver-Sixth Sixth-Grant-WilliamPenn"  />
<trip type="noVar" depart="148" id="Fifth-RHS-Ross.42" from="Fifth-RHS-Ross" to="Grant-Forbes-Fourth" via="Fifth-Ross-Grant Grant-Fifth-Forbes"  />
<trip type="noVar" depart="149" id="Grant-Seventh-Sixth.188" from="Grant-Seventh-Sixth" to="Ross-Forbes-Fourth" via="Grant-Sixth-Oliver Grant-Oliver-Fifth Grant-Fifth-Forbes Forbes-Grant-Ross"  />
<trip type="noVar" depart="150" id="Oliver-Smithfield-WilliamPenn.94" from="Oliver-Smithfield-WilliamPenn" to="Grant-Sixth-Seventh" via="Oliver-WilliamPenn-Grant Grant-Oliver-Sixth"  />
<trip type="noVar" depart="150" id="Forbes-RHS-Ross.123" from="Forbes-RHS-Ross" to="Grant-Forbes-Fourth" via="Forbes-Ross-Grant"  />
<trip type="noVar" depart="151" id="Sixth-Smithfield-WilliamPenn.140" from="Sixth-Smithfield-WilliamPenn" to="Sixth-Ross-RHS" via="Sixth-WilliamPenn-Grant Sixth-Grant-Ross"  />
<trip type="noVar" depart="151" id="Ross-Seventh-Sixth.22" from="Ross-Seventh-Sixth" to="Ross-Forbes-Fourth" via="Ross-Sixth-Fifth Ross-Fifth-Forbes"  />
<trip type="noVar" depart="152" id="Ross-Fourth-Forbes.120" from="Ross-Fourth-Forbes" to="Forbes-Ross-RHS"  />
<trip type="noVar" depart="156" id="Ross-Fourth-Forbes.9" from="Ross-Fourth-Forbes" to="Forbes-Ross-RHS"  />
<trip type="noVar" depart="158" id="Ross-Fourth-Forbes.295" from="Ross-Fourth-Forbes" to="Forbes-Ross-RHS"  />
<trip type="noVar" depart="159" id="Sixth-RHS-Ross.196" from="Sixth-RHS-Ross" to="Grant-Sixth-Seventh" via="Ross-Sixth-Fifth Fifth-Ross-Grant Grant-Fifth-Oliver Grant-Oliver-Sixth"  />
<trip type="noVar" depart="160" id="Forbes-RHS-Ross.208" from="Forbes-RHS-Ross" to="Grant-Forbes-Fourth" via="Forbes-Ross-Grant"  />
<trip type="noVar" depart="161" id="Grant-Fourth-Forbes.270" from="Grant-Fourth-Forbes" to="WilliamPenn-Forbes-Fourth" via="Grant-Forbes-Fifth Grant-Fifth-Oliver Grant-Oliver-Sixth Sixth-Grant-WilliamPenn WilliamPenn-Sixth-Oliver WilliamPenn-Oliver-Fifth WilliamPenn-Fifth-Forbes"  />
<trip type="noVar" depart="165" id="Grant-Fourth-Forbes.286" from="Grant-Fourth-Forbes" to="Grant-Sixth-Seventh" via="Grant-Forbes-Fifth Grant-Fifth-Oliver Grant-Oliver-Sixth"  />
<trip type="noVar" depart="166" id="Ross-Seventh-Sixth.9" from="Ross-Seventh-Sixth" to="Ross-Forbes-Fourth" via="Ross-Sixth-Fifth Ross-Fifth-Forbes"  />
<trip type="noVar" depart="170" id="Grant-Fourth-Forbes.143" from="Grant-Fourth-Forbes" to="Forbes-Ross-RHS" via="Forbes-Grant-Ross"  />
<trip type="noVar" depart="171" id="WilliamPenn-Seventh-Sixth.3" from="WilliamPenn-Seventh-Sixth" to="Fifth-WilliamPenn-Smithfield" via="WilliamPenn-Sixth-Oliver WilliamPenn-Oliver-Fifth"  />
<trip type="noVar" depart="171" id="Ross-Seventh-Sixth.169" from="Ross-Seventh-Sixth" to="Grant-Sixth-Seventh" via="Ross-Sixth-Fifth Fifth-Ross-Grant Grant-Fifth-Oliver Grant-Oliver-Sixth"  />
<trip type="noVar" depart="174" id="Grant-Fourth-Forbes.60" from="Grant-Fourth-Forbes" to="Grant-Sixth-Seventh" via="Grant-Forbes-Fifth Grant-Fifth-Oliver Grant-Oliver-Sixth"  />
<trip type="noVar" depart="174" id="Grant-Fourth-Forbes.127" from="Grant-Fourth-Forbes" to="Ross-Forbes-Fourth" via="Forbes-Grant-Ross"  />
<trip type="noVar" depart="174" id="Sixth-RHS-Ross.66" from="Sixth-RHS-Ross" to="Grant-Sixth-Seventh" via="Sixth-Ross-Grant"  />
<trip type="noVar" depart="175" id="Forbes-RHS-Ross.83" from="Forbes-RHS-Ross" to="Grant-Forbes-Fourth" via="Forbes-Ross-Grant"  />
<trip type="noVar" depart="176" id="Grant-Fourth-Forbes.58" from="Grant-Fourth-Forbes" to="Ross-Forbes-Fourth" via="Forbes-Grant-Ross"  />
<trip type="noVar" depart="176" id="Grant-Fourth-Forbes.219" from="Grant-Fourth-Forbes" to="WilliamPenn-Forbes-Fourth" via="Grant-Forbes-Fifth Fifth-Grant-WilliamPenn WilliamPenn-Fifth-Forbes"  />
<trip type="noVar" depart="176" id="Fifth-RHS-Ross.29" from="Fifth-RHS-Ross" to="Forbes-WilliamPenn-Smithfield" via="Fifth-Ross-Grant Fifth-Grant-WilliamPenn WilliamPenn-Fifth-Forbes"  />
<trip type="noVar" depart="179" id="Fifth-Smithfield-WilliamPenn.26" from="Fifth-Smithfield-WilliamPenn" to="Fifth-Ross-RHS" via="Fifth-WilliamPenn-Grant Fifth-Grant-Ross"  />
<trip type="noVar" depart="180" id="Grant-Fourth-Forbes.190" from="Grant-Fourth-Forbes" to="Grant-Sixth-Seventh" via="Grant-Forbes-Fifth Grant-Fifth-Oliver Grant-Oliver-Sixth"  />
<trip type="noVar" depart="180" id="Ross-Seventh-Sixth.76" from="Ross-Seventh-Sixth" to="Sixth-Ross-RHS"  />
<trip type="noVar" depart="181" id="Grant-Fourth-Forbes.21" from="Grant-Fourth-Forbes" to="WilliamPenn-Forbes-Fourth" via="Forbes-Grant-WilliamPenn"  />
<trip type="noVar" depart="182" id="Forbes-RHS-Ross.196" from="Forbes-RHS-Ross" to="Ross-Forbes-Fourth"  />
<trip type="noVar" depart="184" id="Oliver-Smithfield-WilliamPenn.79" from="Oliver-Smithfield-WilliamPenn" to="WilliamPenn-Forbes-Fourth" via="WilliamPenn-Oliver-Fifth WilliamPenn-Fifth-Forbes"  />
<trip type="noVar" depart="186" id="Ross-Seventh-Sixth.180" from="Ross-Seventh-Sixth" to="Sixth-WilliamPenn-Smithfield" via="Sixth-Ross-Grant Sixth-Grant-WilliamPenn"  />
<trip type="noVar" depart="186" id="Forbes-RHS-Ross.53" from="Forbes-RHS-Ross" to="Ross-Forbes-Fourth"  />
<trip type="noVar" depart="188" id="Sixth-Smithfield-WilliamPenn.4" from="Sixth-Smithfield-WilliamPenn" to="Sixth-Ross-RHS" via="Sixth-WilliamPenn-Grant Sixth-Grant-Ross"  />
<trip type="noVar" depart="188" id="Ross-Seventh-Sixth.229" from="Ross-Seventh-Sixth" to="Sixth-WilliamPenn-Smithfield" via="Sixth-Ross-Grant Sixth-Grant-WilliamPenn"  />
<trip type="noVar" depart="188" id="Forbes-RHS-Ross.194" from="Forbes-RHS-Ross" to="Forbes-WilliamPenn-Smithfield" via="Forbes-Ross-Grant Forbes-Grant-WilliamPenn"  />
<trip type="noVar" depart="189" id="Grant-Seventh-Sixth.120" from="Grant-Seventh-Sixth" to="Forbes-Ross-RHS" via="Grant-Sixth-Oliver Grant-Oliver-Fifth Grant-Fifth-Forbes Forbes-Grant-Ross"  />
<trip type="noVar" depart="190" id="WilliamPenn-Seventh-Sixth.69" from="WilliamPenn-Seventh-Sixth" to="Sixth-Ross-RHS" via="Sixth-WilliamPenn-Grant Sixth-Grant-Ross"  />
<trip type="noVar" depart="191" id="Sixth-Smithfield-WilliamPenn.160" from="Sixth-Smithfield-WilliamPenn" to="Grant-Sixth-Seventh" via="Sixth-WilliamPenn-Grant"  />
<trip type="noVar" depart="193" id="Sixth-RHS-Ross.21" from="Sixth-RHS-Ross" to="Sixth-WilliamPenn-Smithfield" via="Sixth-Ross-Grant Sixth-Grant-WilliamPenn"  />
<trip type="noVar" depart="195" id="Sixth-Smithfield-WilliamPenn.96" from="Sixth-Smithfield-WilliamPenn" to="Sixth-Ross-RHS" via="Sixth-WilliamPenn-Grant Sixth-Grant-Ross"  />
<trip type="noVar" depart="198" id="Fifth-Smithfield-WilliamPenn.38" from="Fifth-Smithfield-WilliamPenn" to="Grant-Sixth-Seventh" via="Fifth-WilliamPenn-Grant Grant-Fifth-Oliver Grant-Oliver-Sixth"  />
<trip type="noVar" depart="199" id="Grant-Fourth-Forbes.285" from="Grant-Fourth-Forbes" to="Grant-Sixth-Seventh" via="Grant-Forbes-Fifth Grant-Fifth-Oliver Grant-Oliver-Sixth"  />
<trip type="noVar" depart="201" id="Sixth-Smithfield-WilliamPenn.15" from="Sixth-Smithfield-WilliamPenn" to="Ross-Sixth-Seventh" via="Sixth-WilliamPenn-Grant Sixth-Grant-Ross"  />
<trip type="noVar" depart="202" id="Sixth-Smithfield-WilliamPenn.151" from="Sixth-Smithfield-WilliamPenn" to="Sixth-Ross-RHS" via="Sixth-WilliamPenn-Grant Sixth-Grant-Ross"  />
<trip type="noVar" depart="202" id="Ross-Fourth-Forbes.14" from="Ross-Fourth-Forbes" to="Forbes-Ross-RHS"  />
<trip type="noVar" depart="204" id="WilliamPenn-Seventh-Sixth.154" from="WilliamPenn-Seventh-Sixth" to="Grant-Sixth-Seventh" via="Sixth-WilliamPenn-Grant"  />
<trip type="noVar" depart="204" id="Grant-Fourth-Forbes.132" from="Grant-Fourth-Forbes" to="Grant-Sixth-Seventh" via="Grant-Forbes-Fifth Grant-Fifth-Oliver Grant-Oliver-Sixth"  />
<trip type="noVar" depart="207" id="Sixth-RHS-Ross.209" from="Sixth-RHS-Ross" to="Grant-Sixth-Seventh" via="Sixth-Ross-Grant"  />
<trip type="noVar" depart="210" id="Grant-Seventh-Sixth.287" from="Grant-Seventh-Sixth" to="Forbes-Ross-RHS" via="Grant-Sixth-Oliver Grant-Oliver-Fifth Grant-Fifth-Forbes Forbes-Grant-Ross"  />
<trip type="noVar" depart="217" id="Grant-Fourth-Forbes.196" from="Grant-Fourth-Forbes" to="Grant-Sixth-Seventh" via="Grant-Forbes-Fifth Grant-Fifth-Oliver Grant-Oliver-Sixth"  />
<trip type="noVar" depart="217" id="Sixth-RHS-Ross.159" from="Sixth-RHS-Ross" to="Grant-Sixth-Seventh" via="Sixth-Ross-Grant"  />
<trip type="noVar" depart="220" id="Oliver-Smithfield-WilliamPenn.73" from="Oliver-Smithfield-WilliamPenn" to="WilliamPenn-Forbes-Fourth" via="WilliamPenn-Oliver-Fifth WilliamPenn-Fifth-Forbes"  />
<trip type="noVar" depart="220" id="Forbes-RHS-Ross.102" from="Forbes-RHS-Ross" to="Sixth-WilliamPenn-Smithfield" via="Forbes-Ross-Grant Grant-Forbes-Fifth Grant-Fifth-Oliver Grant-Oliver-Sixth Sixth-Grant-WilliamPenn"  />