<?xml version="1.0" encoding="UTF-8"?>
<routes xmlns:xsi="http://www.w3.org/2001/XMLSchema-instance" xsi:noNamespaceSchemaLocation="http://sumo.dlr.de/xsd/routes_file.xsd">

<vType id="noVar" speedFactor="1.0" speedDev="0.0"/>
<trip type="noVar" depart="0" id="Sixth-Smithfield-WilliamPenn.243" from="Sixth-Smithfield-WilliamPenn" to="Forbes-WilliamPenn-Smithfield" />
<trip type="noVar" depart="1" id="Grant-Seventh-Sixth.241" from="Grant-Seventh-Sixth" to="WilliamPenn-Forbes-Fourth" />
<trip type="noVar" depart="2" id="Grant-Seventh-Sixth.156" from="Grant-Seventh-Sixth" to="Fifth-WilliamPenn-Smithfield" />
<trip type="noVar" depart="2" id="Forbes-Ross-Grant.154" from="Forbes-Ross-Grant" to="Grant-Forbes-Fourth" />
<trip type="noVar" depart="4" id="Grant-Seventh-Sixth.358" from="Grant-Seventh-Sixth" to="Sixth-WilliamPenn-Smithfield" />
<trip type="noVar" depart="4" id="Sixth-Smithfield-WilliamPenn.232" from="Sixth-Smithfield-WilliamPenn" to="Grant-Forbes-Fourth" />
<trip type="noVar" depart="4" id="Fifth-Ross-Grant.381" from="Fifth-Ross-Grant" to="Fifth-WilliamPenn-Smithfield" />
<trip type="noVar" depart="5" id="Grant-Seventh-Sixth.207" from="Grant-Seventh-Sixth" to="Forbes-Grant-Ross" />
<trip type="noVar" depart="5" id="Grant-Fourth-Forbes.374" from="Grant-Fourth-Forbes" to="Forbes-Grant-Ross" />
<trip type="noVar" depart="6" id="Fifth-Ross-Grant.275" from="Fifth-Ross-Grant" to="Grant-Forbes-Fourth" />
<trip type="noVar" depart="6" id="Grant-Fourth-Forbes.3" from="Grant-Fourth-Forbes" to="Sixth-Grant-Ross" />
<trip type="noVar" depart="6" id="Grant-Fourth-Forbes.307" from="Grant-Fourth-Forbes" to="Grant-Sixth-Seventh" />
<trip type="noVar" depart="7" id="Fifth-Ross-Grant.231" from="Fifth-Ross-Grant" to="Fifth-WilliamPenn-Smithfield" />
<trip type="noVar" depart="8" id="Oliver-Smithfield-WilliamPenn.114" from="Oliver-Smithfield-WilliamPenn" to="WilliamPenn-Forbes-Fourth" />
<trip type="noVar" depart="9" id="WilliamPenn-Seventh-Sixth.205" from="WilliamPenn-Seventh-Sixth" to="WilliamPenn-Forbes-Fourth" />
<trip type="noVar" depart="9" id="Sixth-Smithfield-WilliamPenn.212" from="Sixth-Smithfield-WilliamPenn" to="Grant-Sixth-Seventh" />
<trip type="noVar" depart="11" id="Forbes-Smithfield-WilliamPenn.23" from="Forbes-Smithfield-WilliamPenn" to="WilliamPenn-Forbes-Fourth" />
<trip type="noVar" depart="12" id="Grant-Seventh-Sixth.130" from="Grant-Seventh-Sixth" to="Grant-Forbes-Fourth" />
<trip type="noVar" depart="12" id="Sixth-Smithfield-WilliamPenn.233" from="Sixth-Smithfield-WilliamPenn" to="Grant-Sixth-Seventh" />
<trip type="noVar" depart="12" id="Sixth-Smithfield-WilliamPenn.271" from="Sixth-Smithfield-WilliamPenn" to="Grant-Sixth-Seventh" />
<trip type="noVar" depart="12" id="Fifth-Ross-Grant.219" from="Fifth-Ross-Grant" to="Fifth-WilliamPenn-Smithfield" />
<trip type="noVar" depart="13" id="Oliver-Smithfield-WilliamPenn.127" from="Oliver-Smithfield-WilliamPenn" to="WilliamPenn-Forbes-Fourth" />
<trip type="noVar" depart="16" id="Oliver-Smithfield-WilliamPenn.122" from="Oliver-Smithfield-WilliamPenn" to="WilliamPenn-Forbes-Fourth" />
<trip type="noVar" depart="16" id="Fifth-Ross-Grant.277" from="Fifth-Ross-Grant" to="Forbes-Grant-Ross" />
<trip type="noVar" depart="17" id="Forbes-Ross-Grant.109" from="Forbes-Ross-Grant" to="WilliamPenn-Forbes-Fourth" />
<trip type="noVar" depart="17" id="Grant-Fourth-Forbes.489" from="Grant-Fourth-Forbes" to="Forbes-Grant-Ross" />
<trip type="noVar" depart="20" id="Fifth-Ross-Grant.26" from="Fifth-Ross-Grant" to="Fifth-WilliamPenn-Smithfield" />
<trip type="noVar" depart="25" id="Oliver-Smithfield-WilliamPenn.82" from="Oliver-Smithfield-WilliamPenn" to="Sixth-Grant-Ross" />
<trip type="noVar" depart="28" id="Sixth-Ross-Grant.373" from="Sixth-Ross-Grant" to="Sixth-WilliamPenn-Smithfield" />
<trip type="noVar" depart="28" id="Fifth-Smithfield-WilliamPenn.3" from="Fifth-Smithfield-WilliamPenn" to="Fifth-Grant-Ross" />
<trip type="noVar" depart="29" id="WilliamPenn-Seventh-Sixth.48" from="WilliamPenn-Seventh-Sixth" to="Grant-Sixth-Seventh" />
<trip type="noVar" depart="29" id="Fifth-Ross-Grant.113" from="Fifth-Ross-Grant" to="WilliamPenn-Forbes-Fourth" />
<trip type="noVar" depart="29" id="Fifth-Ross-Grant.388" from="Fifth-Ross-Grant" to="Fifth-WilliamPenn-Smithfield" />
<trip type="noVar" depart="29" id="Grant-Fourth-Forbes.116" from="Grant-Fourth-Forbes" to="Sixth-WilliamPenn-Smithfield" />
<trip type="noVar" depart="29" id="Grant-Fourth-Forbes.257" from="Grant-Fourth-Forbes" to="Sixth-Grant-Ross" />
<trip type="noVar" depart="31" id="Grant-Fourth-Forbes.440" from="Grant-Fourth-Forbes" to="Grant-Sixth-Seventh" />
<trip type="noVar" depart="32" id="Fifth-Ross-Grant.362" from="Fifth-Ross-Grant" to="Grant-Sixth-Seventh" />
<trip type="noVar" depart="33" id="Forbes-Smithfield-WilliamPenn.29" from="Forbes-Smithfield-WilliamPenn" to="WilliamPenn-Forbes-Fourth" />
<trip type="noVar" depart="34" id="Sixth-Ross-Grant.40" from="Sixth-Ross-Grant" to="Grant-Sixth-Seventh" />
<trip type="noVar" depart="36" id="Sixth-Ross-Grant.410" from="Sixth-Ross-Grant" to="Sixth-WilliamPenn-Smithfield" />
<trip type="noVar" depart="36" id="Grant-Fourth-Forbes.579" from="Grant-Fourth-Forbes" to="Forbes-WilliamPenn-Smithfield" />
<trip type="noVar" depart="38" id="Sixth-Ross-Grant.219" from="Sixth-Ross-Grant" to="Grant-Sixth-Seventh" />
<trip type="noVar" depart="41" id="Grant-Seventh-Sixth.9" from="Grant-Seventh-Sixth" to="Grant-Forbes-Fourth" />
<trip type="noVar" depart="42" id="Forbes-Ross-Grant.47" from="Forbes-Ross-Grant" to="WilliamPenn-Forbes-Fourth" />
<trip type="noVar" depart="45" id="Grant-Fourth-Forbes.79" from="Grant-Fourth-Forbes" to="Grant-Sixth-Seventh" />
<trip type="noVar" depart="48" id="Sixth-Ross-Grant.396" from="Sixth-Ross-Grant" to="WilliamPenn-Forbes-Fourth" />
<trip type="noVar" depart="49" id="WilliamPenn-Seventh-Sixth.4" from="WilliamPenn-Seventh-Sixth" to="WilliamPenn-Forbes-Fourth" />
<trip type="noVar" depart="50" id="Sixth-Smithfield-WilliamPenn.111" from="Sixth-Smithfield-WilliamPenn" to="Fifth-WilliamPenn-Smithfield" />
<trip type="noVar" depart="51" id="WilliamPenn-Seventh-Sixth.134" from="WilliamPenn-Seventh-Sixth" to="WilliamPenn-Forbes-Fourth" />
<trip type="noVar" depart="51" id="Fifth-Ross-Grant.117" from="Fifth-Ross-Grant" to="WilliamPenn-Forbes-Fourth" />
<trip type="noVar" depart="51" id="Fifth-Smithfield-WilliamPenn.22" from="Fifth-Smithfield-WilliamPenn" to="Fifth-Grant-Ross" />
<trip type="noVar" depart="52" id="Fifth-Ross-Grant.348" from="Fifth-Ross-Grant" to="Fifth-WilliamPenn-Smithfield" />
<trip type="noVar" depart="53" id="Grant-Fourth-Forbes.275" from="Grant-Fourth-Forbes" to="Grant-Sixth-Seventh" />
<trip type="noVar" depart="55" id="Grant-Fourth-Forbes.398" from="Grant-Fourth-Forbes" to="Fifth-WilliamPenn-Smithfield" />
<trip type="noVar" depart="56" id="Grant-Seventh-Sixth.251" from="Grant-Seventh-Sixth" to="Grant-Forbes-Fourth" />
<trip type="noVar" depart="56" id="Sixth-Smithfield-WilliamPenn.21" from="Sixth-Smithfield-WilliamPenn" to="WilliamPenn-Forbes-Fourth" />
<trip type="noVar" depart="57" id="Forbes-Ross-Grant.73" from="Forbes-Ross-Grant" to="Grant-Forbes-Fourth" />
<trip type="noVar" depart="63" id="Sixth-Ross-Grant.109" from="Sixth-Ross-Grant" to="Grant-Sixth-Seventh" />
<trip type="noVar" depart="64" id="Oliver-Smithfield-WilliamPenn.93" from="Oliver-Smithfield-WilliamPenn" to="WilliamPenn-Forbes-Fourth" />
<trip type="noVar" depart="64" id="Grant-Fourth-Forbes.163" from="Grant-Fourth-Forbes" to="Sixth-Grant-Ross" />
<trip type="noVar" depart="65" id="Oliver-Smithfield-WilliamPenn.86" from="Oliver-Smithfield-WilliamPenn" to="Forbes-Grant-Ross" />
<trip type="noVar" depart="65" id="Fifth-Ross-Grant.8" from="Fifth-Ross-Grant" to="Grant-Sixth-Seventh" />
<trip type="noVar" depart="67" id="Sixth-Smithfield-WilliamPenn.102" from="Sixth-Smithfield-WilliamPenn" to="Sixth-Grant-Ross" />
<trip type="noVar" depart="67" id="Grant-Fourth-Forbes.310" from="Grant-Fourth-Forbes" to="Fifth-Grant-Ross" />
<trip type="noVar" depart="68" id="Fifth-Ross-Grant.129" from="Fifth-Ross-Grant" to="Grant-Forbes-Fourth" />
<trip type="noVar" depart="69" id="Grant-Fourth-Forbes.620" from="Grant-Fourth-Forbes" to="Grant-Sixth-Seventh" />
<trip type="noVar" depart="70" id="Fifth-Ross-Grant.65" from="Fifth-Ross-Grant" to="Fifth-WilliamPenn-Smithfield" />
<trip type="noVar" depart="72" id="Grant-Seventh-Sixth.263" from="Grant-Seventh-Sixth" to="Grant-Forbes-Fourth" />
<trip type="noVar" depart="77" id="WilliamPenn-Seventh-Sixth.200" from="WilliamPenn-Seventh-Sixth" to="Forbes-WilliamPenn-Smithfield" />
<trip type="noVar" depart="77" id="Forbes-Ross-Grant.316" from="Forbes-Ross-Grant" to="Grant-Forbes-Fourth" />
<trip type="noVar" depart="82" id="Grant-Fourth-Forbes.332" from="Grant-Fourth-Forbes" to="WilliamPenn-Forbes-Fourth" />
<trip type="noVar" depart="83" id="Oliver-Smithfield-WilliamPenn.15" from="Oliver-Smithfield-WilliamPenn" to="Fifth-WilliamPenn-Smithfield" />
<trip type="noVar" depart="83" id="Fifth-Ross-Grant.162" from="Fifth-Ross-Grant" to="WilliamPenn-Forbes-Fourth" />
<trip type="noVar" depart="83" id="Grant-Fourth-Forbes.209" from="Grant-Fourth-Forbes" to="Grant-Sixth-Seventh" />
<trip type="noVar" depart="85" id="Oliver-Smithfield-WilliamPenn.119" from="Oliver-Smithfield-WilliamPenn" to="Fifth-WilliamPenn-Smithfield" />
<trip type="noVar" depart="86" id="Grant-Fourth-Forbes.471" from="Grant-Fourth-Forbes" to="Sixth-Grant-Ross" />
<trip type="noVar" depart="87" id="Grant-Fourth-Forbes.346" from="Grant-Fourth-Forbes" to="Fifth-WilliamPenn-Smithfield" />
<trip type="noVar" depart="91" id="Grant-Fourth-Forbes.551" from="Grant-Fourth-Forbes" to="Forbes-WilliamPenn-Smithfield" />
<trip type="noVar" depart="95" id="Fifth-Smithfield-WilliamPenn.102" from="Fifth-Smithfield-WilliamPenn" to="Fifth-Grant-Ross" />
<trip type="noVar" depart="96" id="Forbes-Ross-Grant.326" from="Forbes-Ross-Grant" to="Grant-Forbes-Fourth" />
<trip type="noVar" depart="98" id="Fifth-Ross-Grant.227" from="Fifth-Ross-Grant" to="Fifth-WilliamPenn-Smithfield" />
<trip type="noVar" depart="98" id="Fifth-Ross-Grant.308" from="Fifth-Ross-Grant" to="Fifth-WilliamPenn-Smithfield" />
<trip type="noVar" depart="100" id="Forbes-Ross-Grant.241" from="Forbes-Ross-Grant" to="Grant-Forbes-Fourth" />
<trip type="noVar" depart="102" id="Sixth-Ross-Grant.223" from="Sixth-Ross-Grant" to="Sixth-WilliamPenn-Smithfield" />
<trip type="noVar" depart="102" id="Sixth-Ross-Grant.339" from="Sixth-Ross-Grant" to="Forbes-WilliamPenn-Smithfield" />
<trip type="noVar" depart="103" id="Fifth-Smithfield-WilliamPenn.74" from="Fifth-Smithfield-WilliamPenn" to="Fifth-Grant-Ross" />
<trip type="noVar" depart="106" id="Fifth-Ross-Grant.94" from="Fifth-Ross-Grant" to="Fifth-WilliamPenn-Smithfield" />
<trip type="noVar" depart="107" id="Grant-Fourth-Forbes.483" from="Grant-Fourth-Forbes" to="Grant-Sixth-Seventh" />
<trip type="noVar" depart="108" id="Forbes-Ross-Grant.248" from="Forbes-Ross-Grant" to="WilliamPenn-Forbes-Fourth" />
<trip type="noVar" depart="108" id="Grant-Fourth-Forbes.453" from="Grant-Fourth-Forbes" to="Forbes-Grant-Ross" />
<trip type="noVar" depart="110" id="Grant-Fourth-Forbes.412" from="Grant-Fourth-Forbes" to="Grant-Sixth-Seventh" />
<trip type="noVar" depart="111" id="Forbes-Ross-Grant.5" from="Forbes-Ross-Grant" to="Forbes-WilliamPenn-Smithfield" />
<trip type="noVar" depart="112" id="Grant-Fourth-Forbes.659" from="Grant-Fourth-Forbes" to="Grant-Sixth-Seventh" />
<trip type="noVar" depart="114" id="WilliamPenn-Seventh-Sixth.203" from="WilliamPenn-Seventh-Sixth" to="Oliver-WilliamPenn-Smithfield" />
<trip type="noVar" depart="115" id="Sixth-Ross-Grant.161" from="Sixth-Ross-Grant" to="Sixth-WilliamPenn-Smithfield" />
<trip type="noVar" depart="116" id="Oliver-Smithfield-WilliamPenn.105" from="Oliver-Smithfield-WilliamPenn" to="Grant-Sixth-Seventh" />
<trip type="noVar" depart="117" id="Forbes-Ross-Grant.64" from="Forbes-Ross-Grant" to="Grant-Sixth-Seventh" />
<trip type="noVar" depart="118" id="Fifth-Ross-Grant.359" from="Fifth-Ross-Grant" to="Sixth-WilliamPenn-Smithfield" />
<trip type="noVar" depart="120" id="WilliamPenn-Seventh-Sixth.117" from="WilliamPenn-Seventh-Sixth" to="Oliver-WilliamPenn-Smithfield" />
<trip type="noVar" depart="123" id="Sixth-Ross-Grant.185" from="Sixth-Ross-Grant" to="Grant-Sixth-Seventh" />
<trip type="noVar" depart="124" id="Grant-Fourth-Forbes.436" from="Grant-Fourth-Forbes" to="WilliamPenn-Forbes-Fourth" />
<trip type="noVar" depart="127" id="Grant-Seventh-Sixth.157" from="Grant-Seventh-Sixth" to="Grant-Forbes-Fourth" />
<trip type="noVar" depart="128" id="Grant-Fourth-Forbes.128" from="Grant-Fourth-Forbes" to="Sixth-Grant-Ross" />
<trip type="noVar" depart="130" id="Forbes-Ross-Grant.301" from="Forbes-Ross-Grant" to="Grant-Forbes-Fourth" />
<trip type="noVar" depart="130" id="Grant-Fourth-Forbes.97" from="Grant-Fourth-Forbes" to="Fifth-WilliamPenn-Smithfield" />
<trip type="noVar" depart="130" id="Grant-Fourth-Forbes.391" from="Grant-Fourth-Forbes" to="Fifth-WilliamPenn-Smithfield" />
<trip type="noVar" depart="132" id="Grant-Seventh-Sixth.254" from="Grant-Seventh-Sixth" to="Fifth-Grant-Ross" />
<trip type="noVar" depart="132" id="Sixth-Ross-Grant.225" from="Sixth-Ross-Grant" to="Sixth-WilliamPenn-Smithfield" />
<trip type="noVar" depart="133" id="Forbes-Ross-Grant.307" from="Forbes-Ross-Grant" to="Forbes-WilliamPenn-Smithfield" />
<trip type="noVar" depart="134" id="WilliamPenn-Seventh-Sixth.198" from="WilliamPenn-Seventh-Sixth" to="Sixth-Grant-Ross" />
<trip type="noVar" depart="136" id="WilliamPenn-Seventh-Sixth.135" from="WilliamPenn-Seventh-Sixth" to="Grant-Sixth-Seventh" />
<trip type="noVar" depart="136" id="Sixth-Smithfield-WilliamPenn.106" from="Sixth-Smithfield-WilliamPenn" to="Sixth-Grant-Ross" />
<trip type="noVar" depart="137" id="Grant-Seventh-Sixth.127" from="Grant-Seventh-Sixth" to="Forbes-Grant-Ross" />
<trip type="noVar" depart="138" id="Grant-Seventh-Sixth.76" from="Grant-Seventh-Sixth" to="Grant-Forbes-Fourth" />
<trip type="noVar" depart="138" id="Forbes-Ross-Grant.129" from="Forbes-Ross-Grant" to="WilliamPenn-Forbes-Fourth" />
<trip type="noVar" depart="139" id="Grant-Fourth-Forbes.66" from="Grant-Fourth-Forbes" to="WilliamPenn-Forbes-Fourth" />
<trip type="noVar" depart="141" id="Sixth-Smithfield-WilliamPenn.237" from="Sixth-Smithfield-WilliamPenn" to="WilliamPenn-Forbes-Fourth" />
<trip type="noVar" depart="141" id="Oliver-Smithfield-WilliamPenn.92" from="Oliver-Smithfield-WilliamPenn" to="Sixth-Grant-Ross" />
<trip type="noVar" depart="142" id="Sixth-Ross-Grant.17" from="Sixth-Ross-Grant" to="Fifth-Grant-Ross" />
<trip type="noVar" depart="143" id="Sixth-Smithfield-WilliamPenn.43" from="Sixth-Smithfield-WilliamPenn" to="Sixth-Grant-Ross" />
<trip type="noVar" depart="143" id="Grant-Fourth-Forbes.244" from="Grant-Fourth-Forbes" to="Forbes-Grant-Ross" />
<trip type="noVar" depart="144" id="Fifth-Ross-Grant.175" from="Fifth-Ross-Grant" to="Sixth-WilliamPenn-Smithfield" />
<trip type="noVar" depart="145" id="Fifth-Ross-Grant.163" from="Fifth-Ross-Grant" to="Sixth-WilliamPenn-Smithfield" />
<trip type="noVar" depart="145" id="Grant-Fourth-Forbes.508" from="Grant-Fourth-Forbes" to="Fifth-WilliamPenn-Smithfield" />
<trip type="noVar" depart="148" id="Forbes-Ross-Grant.319" from="Forbes-Ross-Grant" to="WilliamPenn-Forbes-Fourth" />
<trip type="noVar" depart="150" id="Forbes-Ross-Grant.155" from="Forbes-Ross-Grant" to="WilliamPenn-Forbes-Fourth" />
<trip type="noVar" depart="150" id="Forbes-Smithfield-WilliamPenn.44" from="Forbes-Smithfield-WilliamPenn" to="WilliamPenn-Forbes-Fourth" />
<trip type="noVar" depart="153" id="Grant-Fourth-Forbes.193" from="Grant-Fourth-Forbes" to="Sixth-Grant-Ross" />
<trip type="noVar" depart="154" id="Fifth-Smithfield-WilliamPenn.32" from="Fifth-Smithfield-WilliamPenn" to="Fifth-Grant-Ross" />
<trip type="noVar" depart="155" id="WilliamPenn-Seventh-Sixth.153" from="WilliamPenn-Seventh-Sixth" to="Oliver-WilliamPenn-Smithfield" />
<trip type="noVar" depart="156" id="Grant-Seventh-Sixth.340" from="Grant-Seventh-Sixth" to="Fifth-WilliamPenn-Smithfield" />
<trip type="noVar" depart="156" id="WilliamPenn-Seventh-Sixth.125" from="WilliamPenn-Seventh-Sixth" to="WilliamPenn-Forbes-Fourth" />
<trip type="noVar" depart="156" id="Grant-Fourth-Forbes.52" from="Grant-Fourth-Forbes" to="Grant-Sixth-Seventh" />
<trip type="noVar" depart="157" id="Fifth-Ross-Grant.279" from="Fifth-Ross-Grant" to="Fifth-WilliamPenn-Smithfield" />
<trip type="noVar" depart="158" id="Forbes-Ross-Grant.206" from="Forbes-Ross-Grant" to="Grant-Sixth-Seventh" />
<trip type="noVar" depart="158" id="Grant-Fourth-Forbes.185" from="Grant-Fourth-Forbes" to="Fifth-Grant-Ross" />
<trip type="noVar" depart="160" id="Sixth-Ross-Grant.46" from="Sixth-Ross-Grant" to="Grant-Forbes-Fourth" />
<trip type="noVar" depart="160" id="Forbes-Ross-Grant.325" from="Forbes-Ross-Grant" to="WilliamPenn-Forbes-Fourth" />
<trip type="noVar" depart="162" id="Grant-Fourth-Forbes.333" from="Grant-Fourth-Forbes" to="Forbes-WilliamPenn-Smithfield" />
<trip type="noVar" depart="163" id="Fifth-Ross-Grant.81" from="Fifth-Ross-Grant" to="Fifth-WilliamPenn-Smithfield" />
<trip type="noVar" depart="163" id="Forbes-Ross-Grant.315" from="Forbes-Ross-Grant" to="Forbes-WilliamPenn-Smithfield" />
<trip type="noVar" depart="163" id="Grant-Fourth-Forbes.207" from="Grant-Fourth-Forbes" to="WilliamPenn-Forbes-Fourth" />
<trip type="noVar" depart="166" id="Sixth-Smithfield-WilliamPenn.73" from="Sixth-Smithfield-WilliamPenn" to="Grant-Sixth-Seventh" />
<trip type="noVar" depart="167" id="Grant-Seventh-Sixth.140" from="Grant-Seventh-Sixth" to="Sixth-Grant-Ross" />
<trip type="noVar" depart="168" id="Fifth-Ross-Grant.192" from="Fifth-Ross-Grant" to="Fifth-WilliamPenn-Smithfield" />
<trip type="noVar" depart="169" id="Sixth-Smithfield-WilliamPenn.51" from="Sixth-Smithfield-WilliamPenn" to="Fifth-WilliamPenn-Smithfield" />
<trip type="noVar" depart="171" id="Grant-Seventh-Sixth.341" from="Grant-Seventh-Sixth" to="WilliamPenn-Forbes-Fourth" />
<trip type="noVar" depart="173" id="Sixth-Ross-Grant.47" from="Sixth-Ross-Grant" to="Forbes-WilliamPenn-Smithfield" />
<trip type="noVar" depart="174" id="Sixth-Ross-Grant.389" from="Sixth-Ross-Grant" to="Grant-Sixth-Seventh" />
<trip type="noVar" depart="174" id="Sixth-Smithfield-WilliamPenn.88" from="Sixth-Smithfield-WilliamPenn" to="Fifth-WilliamPenn-Smithfield" />
<trip type="noVar" depart="175" id="Grant-Fourth-Forbes.477" from="Grant-Fourth-Forbes" to="Forbes-Grant-Ross" />
<trip type="noVar" depart="179" id="Grant-Seventh-Sixth.216" from="Grant-Seventh-Sixth" to="Sixth-Grant-Ross" />
<trip type="noVar" depart="184" id="WilliamPenn-Seventh-Sixth.35" from="WilliamPenn-Seventh-Sixth" to="WilliamPenn-Forbes-Fourth" />
<trip type="noVar" depart="184" id="Grant-Fourth-Forbes.449" from="Grant-Fourth-Forbes" to="Grant-Sixth-Seventh" />
<trip type="noVar" depart="185" id="Oliver-Smithfield-WilliamPenn.0" from="Oliver-Smithfield-WilliamPenn" to="Grant-Sixth-Seventh" />
<trip type="noVar" depart="186" id="Grant-Seventh-Sixth.268" from="Grant-Seventh-Sixth" to="Sixth-Grant-Ross" />
<trip type="noVar" depart="186" id="Grant-Fourth-Forbes.70" from="Grant-Fourth-Forbes" to="Sixth-Grant-Ross" />
<trip type="noVar" depart="187" id="Grant-Seventh-Sixth.134" from="Grant-Seventh-Sixth" to="Fifth-WilliamPenn-Smithfield" />
<trip type="noVar" depart="187" id="Fifth-Ross-Grant.197" from="Fifth-Ross-Grant" to="Fifth-WilliamPenn-Smithfield" />
<trip type="noVar" depart="188" id="Grant-Seventh-Sixth.19" from="Grant-Seventh-Sixth" to="Grant-Forbes-Fourth" />
<trip type="noVar" depart="189" id="Forbes-Ross-Grant.244" from="Forbes-Ross-Grant" to="Grant-Forbes-Fourth" />
<trip type="noVar" depart="191" id="Sixth-Ross-Grant.329" from="Sixth-Ross-Grant" to="Forbes-Grant-Ross" />
<trip type="noVar" depart="191" id="WilliamPenn-Seventh-Sixth.220" from="WilliamPenn-Seventh-Sixth" to="WilliamPenn-Forbes-Fourth" />
<trip type="noVar" depart="192" id="Grant-Fourth-Forbes.40" from="Grant-Fourth-Forbes" to="Forbes-Grant-Ross" />
<trip type="noVar" depart="195" id="Sixth-Smithfield-WilliamPenn.255" from="Sixth-Smithfield-WilliamPenn" to="Grant-Sixth-Seventh" />
<trip type="noVar" depart="195" id="Forbes-Ross-Grant.163" from="Forbes-Ross-Grant" to="WilliamPenn-Forbes-Fourth" />
<trip type="noVar" depart="195" id="Grant-Fourth-Forbes.122" from="Grant-Fourth-Forbes" to="Grant-Sixth-Seventh" />
<trip type="noVar" depart="197" id="Forbes-Ross-Grant.225" from="Forbes-Ross-Grant" to="Forbes-WilliamPenn-Smithfield" />
<trip type="noVar" depart="199" id="Grant-Seventh-Sixth.31" from="Grant-Seventh-Sixth" to="Fifth-WilliamPenn-Smithfield" />
<trip type="noVar" depart="199" id="Grant-Seventh-Sixth.215" from="Grant-Seventh-Sixth" to="Forbes-Grant-Ross" />
<trip type="noVar" depart="199" id="Grant-Fourth-Forbes.575" from="Grant-Fourth-Forbes" to="Forbes-Grant-Ross" />
<trip type="noVar" depart="201" id="Forbes-Ross-Grant.55" from="Forbes-Ross-Grant" to="Forbes-WilliamPenn-Smithfield" />
<trip type="noVar" depart="202" id="Grant-Fourth-Forbes.184" from="Grant-Fourth-Forbes" to="Sixth-WilliamPenn-Smithfield" />
<trip type="noVar" depart="203" id="Sixth-Ross-Grant.154" from="Sixth-Ross-Grant" to="Grant-Forbes-Fourth" />
<trip type="noVar" depart="206" id="Sixth-Ross-Grant.32" from="Sixth-Ross-Grant" to="WilliamPenn-Forbes-Fourth" />
<trip type="noVar" depart="207" id="Fifth-Ross-Grant.39" from="Fifth-Ross-Grant" to="WilliamPenn-Forbes-Fourth" />
<trip type="noVar" depart="207" id="Grant-Fourth-Forbes.609" from="Grant-Fourth-Forbes" to="Forbes-Grant-Ross" />
<trip type="noVar" depart="208" id="Fifth-Ross-Grant.399" from="Fifth-Ross-Grant" to="Fifth-WilliamPenn-Smithfield" />
<trip type="noVar" depart="209" id="Forbes-Ross-Grant.314" from="Forbes-Ross-Grant" to="Forbes-WilliamPenn-Smithfield" />
<trip type="noVar" depart="209" id="Grant-Fourth-Forbes.688" from="Grant-Fourth-Forbes" to="Forbes-WilliamPenn-Smithfield" />
<trip type="noVar" depart="210" id="Forbes-Ross-Grant.211" from="Forbes-Ross-Grant" to="Forbes-WilliamPenn-Smithfield" />
<trip type="noVar" depart="211" id="Sixth-Ross-Grant.48" from="Sixth-Ross-Grant" to="Grant-Sixth-Seventh" />
<trip type="noVar" depart="214" id="WilliamPenn-Seventh-Sixth.11" from="WilliamPenn-Seventh-Sixth" to="Sixth-WilliamPenn-Smithfield" />
<trip type="noVar" depart="215" id="Grant-Fourth-Forbes.301" from="Grant-Fourth-Forbes" to="Sixth-Grant-Ross" />
<trip type="noVar" depart="216" id="Forbes-Ross-Grant.119" from="Forbes-Ross-Grant" to="WilliamPenn-Forbes-Fourth" />
<trip type="noVar" depart="217" id="Grant-Fourth-Forbes.206" from="Grant-Fourth-Forbes" to="Forbes-WilliamPenn-Smithfield" />
<trip type="noVar" depart="219" id="Sixth-Smithfield-WilliamPenn.210" from="Sixth-Smithfield-WilliamPenn" to="Fifth-WilliamPenn-Smithfield" />
<trip type="noVar" depart="225" id="Grant-Seventh-Sixth.247" from="Grant-Seventh-Sixth" to="WilliamPenn-Forbes-Fourth" />
<trip type="noVar" depart="225" id="Grant-Fourth-Forbes.527" from="Grant-Fourth-Forbes" to="Sixth-WilliamPenn-Smithfield" />
<trip type="noVar" depart="226" id="Fifth-Ross-Grant.217" from="Fifth-Ross-Grant" to="Fifth-WilliamPenn-Smithfield" />
<trip type="noVar" depart="229" id="Oliver-Smithfield-WilliamPenn.109" from="Oliver-Smithfield-WilliamPenn" to="WilliamPenn-Forbes-Fourth" />
<trip type="noVar" depart="231" id="Grant-Seventh-Sixth.98" from="Grant-Seventh-Sixth" to="Grant-Forbes-Fourth" />
<trip type="noVar" depart="231" id="Grant-Seventh-Sixth.323" from="Grant-Seventh-Sixth" to="Sixth-Grant-Ross" />
<trip type="noVar" depart="231" id="Sixth-Smithfield-WilliamPenn.207" from="Sixth-Smithfield-WilliamPenn" to="Sixth-Grant-Ross" />
<trip type="noVar" depart="233" id="Oliver-Smithfield-WilliamPenn.4" from="Oliver-Smithfield-WilliamPenn" to="Sixth-Grant-Ross" />
<trip type="noVar" depart="234" id="Fifth-Ross-Grant.234" from="Fifth-Ross-Grant" to="Fifth-WilliamPenn-Smithfield" />
<trip type="noVar" depart="237" id="Fifth-Smithfield-WilliamPenn.87" from="Fifth-Smithfield-WilliamPenn" to="Fifth-Grant-Ross" />
<trip type="noVar" depart="237" id="Forbes-Ross-Grant.49" from="Forbes-Ross-Grant" to="WilliamPenn-Forbes-Fourth" />
<trip type="noVar" depart="239" id="Fifth-Smithfield-WilliamPenn.72" from="Fifth-Smithfield-WilliamPenn" to="Fifth-Grant-Ross" />
<trip type="noVar" depart="244" id="Sixth-Ross-Grant.250" from="Sixth-Ross-Grant" to="Grant-Sixth-Seventh" />
<trip type="noVar" depart="244" id="Forbes-Ross-Grant.286" from="Forbes-Ross-Grant" to="Grant-Forbes-Fourth" />
<trip type="noVar" depart="248" id="Fifth-Smithfield-WilliamPenn.27" from="Fifth-Smithfield-WilliamPenn" to="Fifth-Grant-Ross" />
<trip type="noVar" depart="249" id="Forbes-Ross-Grant.195" from="Forbes-Ross-Grant" to="Forbes-WilliamPenn-Smithfield" />
<trip type="noVar" depart="250" id="Grant-Fourth-Forbes.86" from="Grant-Fourth-Forbes" to="Forbes-Grant-Ross" />
<trip type="noVar" depart="251" id="Sixth-Smithfield-WilliamPenn.236" from="Sixth-Smithfield-WilliamPenn" to="WilliamPenn-Forbes-Fourth" />
<trip type="noVar" depart="253" id="Sixth-Smithfield-WilliamPenn.258" from="Sixth-Smithfield-WilliamPenn" to="Sixth-Grant-Ross" />
<trip type="noVar" depart="254" id="WilliamPenn-Seventh-Sixth.27" from="WilliamPenn-Seventh-Sixth" to="WilliamPenn-Forbes-Fourth" />
<trip type="noVar" depart="254" id="Forbes-Ross-Grant.124" from="Forbes-Ross-Grant" to="Grant-Forbes-Fourth" />
<trip type="noVar" depart="256" id="Fifth-Ross-Grant.142" from="Fifth-Ross-Grant" to="Grant-Forbes-Fourth" />
<trip type="noVar" depart="256" id="Fifth-Ross-Grant.220" from="Fifth-Ross-Grant" to="Fifth-WilliamPenn-Smithfield" />
<trip type="noVar" depart="256" id="Forbes-Ross-Grant.199" from="Forbes-Ross-Grant" to="WilliamPenn-Forbes-Fourth" />
<trip type="noVar" depart="257" id="Oliver-Smithfield-WilliamPenn.159" from="Oliver-Smithfield-WilliamPenn" to="Grant-Sixth-Seventh" />
<trip type="noVar" depart="259" id="Grant-Seventh-Sixth.291" from="Grant-Seventh-Sixth" to="Grant-Forbes-Fourth" />
<trip type="noVar" depart="259" id="Grant-Fourth-Forbes.368" from="Grant-Fourth-Forbes" to="Grant-Sixth-Seventh" />
<trip type="noVar" depart="262" id="Sixth-Smithfield-WilliamPenn.20" from="Sixth-Smithfield-WilliamPenn" to="Oliver-WilliamPenn-Smithfield" />
<trip type="noVar" depart="262" id="Grant-Fourth-Forbes.434" from="Grant-Fourth-Forbes" to="Sixth-WilliamPenn-Smithfield" />
<trip type="noVar" depart="263" id="WilliamPenn-Seventh-Sixth.163" from="WilliamPenn-Seventh-Sixth" to="WilliamPenn-Forbes-Fourth" />
<trip type="noVar" depart="265" id="Grant-Fourth-Forbes.217" from="Grant-Fourth-Forbes" to="WilliamPenn-Forbes-Fourth" />
<trip type="noVar" depart="270" id="Grant-Fourth-Forbes.678" from="Grant-Fourth-Forbes" to="Forbes-Grant-Ross" />
<trip type="noVar" depart="272" id="Grant-Seventh-Sixth.82" from="Grant-Seventh-Sixth" to="Grant-Forbes-Fourth" />
<trip type="noVar" depart="272" id="Forbes-Ross-Grant.230" from="Forbes-Ross-Grant" to="WilliamPenn-Forbes-Fourth" />
<trip type="noVar" depart="273" id="Fifth-Smithfield-WilliamPenn.94" from="Fifth-Smithfield-WilliamPenn" to="Fifth-Grant-Ross" />
<trip type="noVar" depart="274" id="Forbes-Ross-Grant.226" from="Forbes-Ross-Grant" to="WilliamPenn-Forbes-Fourth" />
<trip type="noVar" depart="275" id="Forbes-Smithfield-WilliamPenn.54" from="Forbes-Smithfield-WilliamPenn" to="WilliamPenn-Forbes-Fourth" />
<trip type="noVar" depart="276" id="Forbes-Ross-Grant.279" from="Forbes-Ross-Grant" to="Grant-Forbes-Fourth" />
<trip type="noVar" depart="276" id="Grant-Fourth-Forbes.366" from="Grant-Fourth-Forbes" to="Forbes-Grant-Ross" />
<trip type="noVar" depart="279" id="Sixth-Smithfield-WilliamPenn.211" from="Sixth-Smithfield-WilliamPenn" to="Sixth-Grant-Ross" />
<trip type="noVar" depart="279" id="Fifth-Ross-Grant.58" from="Fifth-Ross-Grant" to="Grant-Forbes-Fourth" />
<trip type="noVar" depart="279" id="Grant-Fourth-Forbes.215" from="Grant-Fourth-Forbes" to="Sixth-WilliamPenn-Smithfield" />
<trip type="noVar" depart="281" id="Fifth-Smithfield-WilliamPenn.34" from="Fifth-Smithfield-WilliamPenn" to="WilliamPenn-Forbes-Fourth" />
<trip type="noVar" depart="282" id="Forbes-Ross-Grant.36" from="Forbes-Ross-Grant" to="Grant-Forbes-Fourth" />
<trip type="noVar" depart="283" id="Grant-Seventh-Sixth.397" from="Grant-Seventh-Sixth" to="Forbes-WilliamPenn-Smithfield" />
<trip type="noVar" depart="286" id="Fifth-Ross-Grant.107" from="Fifth-Ross-Grant" to="Fifth-WilliamPenn-Smithfield" />
<trip type="noVar" depart="288" id="Fifth-Ross-Grant.228" from="Fifth-Ross-Grant" to="Grant-Forbes-Fourth" />
<trip type="noVar" depart="289" id="Sixth-Ross-Grant.415" from="Sixth-Ross-Grant" to="Sixth-WilliamPenn-Smithfield" />
<trip type="noVar" depart="289" id="Fifth-Ross-Grant.373" from="Fifth-Ross-Grant" to="WilliamPenn-Forbes-Fourth" />
<trip type="noVar" depart="291" id="Forbes-Ross-Grant.243" from="Forbes-Ross-Grant" to="Grant-Sixth-Seventh" />
<trip type="noVar" depart="293" id="Forbes-Ross-Grant.52" from="Forbes-Ross-Grant" to="Grant-Forbes-Fourth" />
<trip type="noVar" depart="293" id="Grant-Fourth-Forbes.540" from="Grant-Fourth-Forbes" to="Forbes-WilliamPenn-Smithfield" />
<trip type="noVar" depart="294" id="Grant-Fourth-Forbes.617" from="Grant-Fourth-Forbes" to="Forbes-Grant-Ross" />
<trip type="noVar" depart="295" id="Forbes-Smithfield-WilliamPenn.33" from="Forbes-Smithfield-WilliamPenn" to="WilliamPenn-Forbes-Fourth" />
<trip type="noVar" depart="296" id="Sixth-Smithfield-WilliamPenn.59" from="Sixth-Smithfield-WilliamPenn" to="Grant-Sixth-Seventh" />
<trip type="noVar" depart="296" id="Oliver-Smithfield-WilliamPenn.111" from="Oliver-Smithfield-WilliamPenn" to="Fifth-WilliamPenn-Smithfield" />
<trip type="noVar" depart="297" id="Grant-Fourth-Forbes.354" from="Grant-Fourth-Forbes" to="WilliamPenn-Forbes-Fourth" />