<?xml version="1.0" encoding="UTF-8"?>
<routes xmlns:xsi="http://www.w3.org/2001/XMLSchema-instance" xsi:noNamespaceSchemaLocation="http://sumo.dlr.de/xsd/routes_file.xsd">

<vType id="noVar" speedFactor="1.0" speedDev="0.0"/>
<trip type="noVar" depart="1" id="Ross-Fourth-Forbes.319" from="Ross-Fourth-Forbes" to="WilliamPenn-Forbes-Fourth" />
<trip type="noVar" depart="3" id="Sixth-RHS-Ross.122" from="Sixth-RHS-Ross" to="Ross-Forbes-Fourth" />
<trip type="noVar" depart="3" id="Ross-Fourth-Forbes.108" from="Ross-Fourth-Forbes" to="Grant-Forbes-Fourth" />
<trip type="noVar" depart="4" id="Grant-Fourth-Forbes.633" from="Grant-Fourth-Forbes" to="Sixth-WilliamPenn-Smithfield" />
<trip type="noVar" depart="4" id="Fifth-RHS-Ross.94" from="Fifth-RHS-Ross" to="Fifth-WilliamPenn-Smithfield" />
<trip type="noVar" depart="5" id="Sixth-RHS-Ross.89" from="Sixth-RHS-Ross" to="Grant-Forbes-Fourth" />
<trip type="noVar" depart="6" id="Grant-Seventh-Sixth.325" from="Grant-Seventh-Sixth" to="Grant-Forbes-Fourth" />
<trip type="noVar" depart="7" id="Grant-Fourth-Forbes.355" from="Grant-Fourth-Forbes" to="Grant-Sixth-Seventh" />
<trip type="noVar" depart="7" id="Fifth-RHS-Ross.124" from="Fifth-RHS-Ross" to="Fifth-WilliamPenn-Smithfield" />
<trip type="noVar" depart="9" id="WilliamPenn-Seventh-Sixth.77" from="WilliamPenn-Seventh-Sixth" to="WilliamPenn-Forbes-Fourth" />
<trip type="noVar" depart="9" id="Forbes-RHS-Ross.33" from="Forbes-RHS-Ross" to="Ross-Forbes-Fourth" />
<trip type="noVar" depart="10" id="Oliver-Smithfield-WilliamPenn.20" from="Oliver-Smithfield-WilliamPenn" to="Grant-Sixth-Seventh" />
<trip type="noVar" depart="12" id="Oliver-Smithfield-WilliamPenn.23" from="Oliver-Smithfield-WilliamPenn" to="Sixth-WilliamPenn-Smithfield" />
<trip type="noVar" depart="13" id="Grant-Seventh-Sixth.139" from="Grant-Seventh-Sixth" to="Sixth-Ross-RHS" />
<trip type="noVar" depart="13" id="Ross-Seventh-Sixth.6" from="Ross-Seventh-Sixth" to="Grant-Sixth-Seventh" />
<trip type="noVar" depart="14" id="Grant-Seventh-Sixth.148" from="Grant-Seventh-Sixth" to="Grant-Forbes-Fourth" />
<trip type="noVar" depart="14" id="Grant-Fourth-Forbes.209" from="Grant-Fourth-Forbes" to="Grant-Sixth-Seventh" />
<trip type="noVar" depart="14" id="Fifth-RHS-Ross.150" from="Fifth-RHS-Ross" to="Forbes-WilliamPenn-Smithfield" />
<trip type="noVar" depart="16" id="Fifth-RHS-Ross.247" from="Fifth-RHS-Ross" to="Fifth-WilliamPenn-Smithfield" />
<trip type="noVar" depart="18" id="Ross-Seventh-Sixth.289" from="Ross-Seventh-Sixth" to="Ross-Forbes-Fourth" />
<trip type="noVar" depart="19" id="Grant-Fourth-Forbes.67" from="Grant-Fourth-Forbes" to="WilliamPenn-Forbes-Fourth" />
<trip type="noVar" depart="19" id="Forbes-RHS-Ross.262" from="Forbes-RHS-Ross" to="WilliamPenn-Forbes-Fourth" />
<trip type="noVar" depart="20" id="Grant-Fourth-Forbes.693" from="Grant-Fourth-Forbes" to="Forbes-Ross-RHS" />
<trip type="noVar" depart="21" id="Forbes-RHS-Ross.44" from="Forbes-RHS-Ross" to="Ross-Forbes-Fourth" />
<trip type="noVar" depart="22" id="Forbes-Smithfield-WilliamPenn.19" from="Forbes-Smithfield-WilliamPenn" to="WilliamPenn-Forbes-Fourth" />
<trip type="noVar" depart="22" id="Forbes-RHS-Ross.56" from="Forbes-RHS-Ross" to="Ross-Forbes-Fourth" />
<trip type="noVar" depart="23" id="Grant-Fourth-Forbes.337" from="Grant-Fourth-Forbes" to="Grant-Sixth-Seventh" />
<trip type="noVar" depart="23" id="Sixth-RHS-Ross.39" from="Sixth-RHS-Ross" to="Sixth-WilliamPenn-Smithfield" />
<trip type="noVar" depart="25" id="Grant-Fourth-Forbes.685" from="Grant-Fourth-Forbes" to="Ross-Sixth-Seventh" />
<trip type="noVar" depart="25" id="Fifth-RHS-Ross.19" from="Fifth-RHS-Ross" to="Grant-Forbes-Fourth" />
<trip type="noVar" depart="25" id="Fifth-RHS-Ross.229" from="Fifth-RHS-Ross" to="Fifth-WilliamPenn-Smithfield" />
<trip type="noVar" depart="26" id="Fifth-RHS-Ross.176" from="Fifth-RHS-Ross" to="Sixth-WilliamPenn-Smithfield" />
<trip type="noVar" depart="27" id="Grant-Fourth-Forbes.694" from="Grant-Fourth-Forbes" to="Sixth-WilliamPenn-Smithfield" />
<trip type="noVar" depart="27" id="Fifth-RHS-Ross.107" from="Fifth-RHS-Ross" to="WilliamPenn-Forbes-Fourth" />
<trip type="noVar" depart="28" id="Sixth-Smithfield-WilliamPenn.90" from="Sixth-Smithfield-WilliamPenn" to="Ross-Forbes-Fourth" />
<trip type="noVar" depart="29" id="WilliamPenn-Seventh-Sixth.153" from="WilliamPenn-Seventh-Sixth" to="Sixth-Ross-RHS" />
<trip type="noVar" depart="29" id="WilliamPenn-Seventh-Sixth.222" from="WilliamPenn-Seventh-Sixth" to="WilliamPenn-Forbes-Fourth" />
<trip type="noVar" depart="30" id="Sixth-Smithfield-WilliamPenn.194" from="Sixth-Smithfield-WilliamPenn" to="Fifth-WilliamPenn-Smithfield" />
<trip type="noVar" depart="30" id="Sixth-RHS-Ross.64" from="Sixth-RHS-Ross" to="Grant-Sixth-Seventh" />
<trip type="noVar" depart="31" id="Grant-Seventh-Sixth.296" from="Grant-Seventh-Sixth" to="WilliamPenn-Forbes-Fourth" />
<trip type="noVar" depart="31" id="Fifth-Smithfield-WilliamPenn.19" from="Fifth-Smithfield-WilliamPenn" to="Fifth-Ross-RHS" />
<trip type="noVar" depart="33" id="Grant-Fourth-Forbes.616" from="Grant-Fourth-Forbes" to="Grant-Sixth-Seventh" />
<trip type="noVar" depart="36" id="Grant-Seventh-Sixth.308" from="Grant-Seventh-Sixth" to="Ross-Sixth-Seventh" />
<trip type="noVar" depart="36" id="Forbes-RHS-Ross.119" from="Forbes-RHS-Ross" to="Forbes-WilliamPenn-Smithfield" />
<trip type="noVar" depart="36" id="Ross-Fourth-Forbes.376" from="Ross-Fourth-Forbes" to="Fifth-Ross-RHS" />
<trip type="noVar" depart="37" id="Ross-Fourth-Forbes.174" from="Ross-Fourth-Forbes" to="Forbes-WilliamPenn-Smithfield" />
<trip type="noVar" depart="37" id="Ross-Fourth-Forbes.309" from="Ross-Fourth-Forbes" to="Forbes-WilliamPenn-Smithfield" />
<trip type="noVar" depart="38" id="Forbes-Smithfield-WilliamPenn.9" from="Forbes-Smithfield-WilliamPenn" to="WilliamPenn-Forbes-Fourth" />
<trip type="noVar" depart="38" id="Ross-Seventh-Sixth.218" from="Ross-Seventh-Sixth" to="Sixth-WilliamPenn-Smithfield" />
<trip type="noVar" depart="38" id="Forbes-RHS-Ross.132" from="Forbes-RHS-Ross" to="Forbes-WilliamPenn-Smithfield" />
<trip type="noVar" depart="40" id="Grant-Seventh-Sixth.27" from="Grant-Seventh-Sixth" to="Grant-Forbes-Fourth" />
<trip type="noVar" depart="40" id="WilliamPenn-Seventh-Sixth.44" from="WilliamPenn-Seventh-Sixth" to="Fifth-WilliamPenn-Smithfield" />
<trip type="noVar" depart="41" id="Sixth-Smithfield-WilliamPenn.92" from="Sixth-Smithfield-WilliamPenn" to="Grant-Sixth-Seventh" />
<trip type="noVar" depart="43" id="Oliver-Smithfield-WilliamPenn.26" from="Oliver-Smithfield-WilliamPenn" to="WilliamPenn-Forbes-Fourth" />
<trip type="noVar" depart="44" id="Grant-Fourth-Forbes.471" from="Grant-Fourth-Forbes" to="Ross-Forbes-Fourth" />
<trip type="noVar" depart="45" id="Sixth-Smithfield-WilliamPenn.106" from="Sixth-Smithfield-WilliamPenn" to="Sixth-Ross-RHS" />
<trip type="noVar" depart="45" id="Grant-Fourth-Forbes.19" from="Grant-Fourth-Forbes" to="Sixth-Ross-RHS" />
<trip type="noVar" depart="50" id="Forbes-RHS-Ross.54" from="Forbes-RHS-Ross" to="Ross-Forbes-Fourth" />
<trip type="noVar" depart="51" id="Ross-Fourth-Forbes.359" from="Ross-Fourth-Forbes" to="Forbes-Ross-RHS" />
<trip type="noVar" depart="53" id="Grant-Seventh-Sixth.307" from="Grant-Seventh-Sixth" to="Grant-Forbes-Fourth" />
<trip type="noVar" depart="53" id="Sixth-Smithfield-WilliamPenn.159" from="Sixth-Smithfield-WilliamPenn" to="Grant-Forbes-Fourth" />
<trip type="noVar" depart="53" id="Grant-Fourth-Forbes.336" from="Grant-Fourth-Forbes" to="Grant-Sixth-Seventh" />
<trip type="noVar" depart="53" id="Ross-Seventh-Sixth.10" from="Ross-Seventh-Sixth" to="Ross-Forbes-Fourth" />
<trip type="noVar" depart="54" id="Grant-Fourth-Forbes.6" from="Grant-Fourth-Forbes" to="Sixth-WilliamPenn-Smithfield" />
<trip type="noVar" depart="55" id="Fifth-RHS-Ross.198" from="Fifth-RHS-Ross" to="Fifth-WilliamPenn-Smithfield" />
<trip type="noVar" depart="56" id="WilliamPenn-Seventh-Sixth.101" from="WilliamPenn-Seventh-Sixth" to="Oliver-WilliamPenn-Smithfield" />
<trip type="noVar" depart="56" id="Ross-Seventh-Sixth.4" from="Ross-Seventh-Sixth" to="Sixth-Ross-RHS" />
<trip type="noVar" depart="56" id="Ross-Seventh-Sixth.232" from="Ross-Seventh-Sixth" to="Grant-Sixth-Seventh" />
<trip type="noVar" depart="57" id="Fifth-RHS-Ross.190" from="Fifth-RHS-Ross" to="WilliamPenn-Forbes-Fourth" />
<trip type="noVar" depart="58" id="Grant-Fourth-Forbes.572" from="Grant-Fourth-Forbes" to="Sixth-Ross-RHS" />
<trip type="noVar" depart="58" id="Fifth-RHS-Ross.242" from="Fifth-RHS-Ross" to="Fifth-WilliamPenn-Smithfield" />
<trip type="noVar" depart="60" id="Ross-Fourth-Forbes.184" from="Ross-Fourth-Forbes" to="Forbes-Ross-RHS" />
<trip type="noVar" depart="62" id="Grant-Seventh-Sixth.58" from="Grant-Seventh-Sixth" to="Grant-Forbes-Fourth" />
<trip type="noVar" depart="62" id="Fifth-RHS-Ross.314" from="Fifth-RHS-Ross" to="Ross-Sixth-Seventh" />
<trip type="noVar" depart="62" id="Ross-Fourth-Forbes.322" from="Ross-Fourth-Forbes" to="Ross-Sixth-Seventh" />
<trip type="noVar" depart="64" id="Grant-Seventh-Sixth.305" from="Grant-Seventh-Sixth" to="Fifth-WilliamPenn-Smithfield" />
<trip type="noVar" depart="64" id="Fifth-RHS-Ross.3" from="Fifth-RHS-Ross" to="Grant-Forbes-Fourth" />
<trip type="noVar" depart="66" id="Fifth-Smithfield-WilliamPenn.102" from="Fifth-Smithfield-WilliamPenn" to="Fifth-Ross-RHS" />
<trip type="noVar" depart="66" id="Ross-Seventh-Sixth.317" from="Ross-Seventh-Sixth" to="Sixth-Ross-RHS" />
<trip type="noVar" depart="66" id="Sixth-RHS-Ross.59" from="Sixth-RHS-Ross" to="Sixth-WilliamPenn-Smithfield" />
<trip type="noVar" depart="66" id="Forbes-RHS-Ross.309" from="Forbes-RHS-Ross" to="Grant-Forbes-Fourth" />
<trip type="noVar" depart="67" id="Forbes-RHS-Ross.213" from="Forbes-RHS-Ross" to="WilliamPenn-Forbes-Fourth" />
<trip type="noVar" depart="69" id="Grant-Seventh-Sixth.149" from="Grant-Seventh-Sixth" to="Grant-Forbes-Fourth" />
<trip type="noVar" depart="69" id="Ross-Fourth-Forbes.298" from="Ross-Fourth-Forbes" to="WilliamPenn-Forbes-Fourth" />
<trip type="noVar" depart="72" id="Grant-Fourth-Forbes.0" from="Grant-Fourth-Forbes" to="Grant-Sixth-Seventh" />
<trip type="noVar" depart="72" id="Ross-Fourth-Forbes.138" from="Ross-Fourth-Forbes" to="Forbes-Ross-RHS" />
<trip type="noVar" depart="73" id="Ross-Seventh-Sixth.357" from="Ross-Seventh-Sixth" to="Sixth-Ross-RHS" />
<trip type="noVar" depart="73" id="Forbes-RHS-Ross.373" from="Forbes-RHS-Ross" to="Fifth-WilliamPenn-Smithfield" />
<trip type="noVar" depart="74" id="Ross-Seventh-Sixth.249" from="Ross-Seventh-Sixth" to="Ross-Forbes-Fourth" />
<trip type="noVar" depart="75" id="Grant-Seventh-Sixth.269" from="Grant-Seventh-Sixth" to="Grant-Forbes-Fourth" />
<trip type="noVar" depart="75" id="Forbes-Smithfield-WilliamPenn.36" from="Forbes-Smithfield-WilliamPenn" to="WilliamPenn-Forbes-Fourth" />
<trip type="noVar" depart="75" id="Ross-Seventh-Sixth.142" from="Ross-Seventh-Sixth" to="Grant-Forbes-Fourth" />
<trip type="noVar" depart="76" id="Grant-Seventh-Sixth.99" from="Grant-Seventh-Sixth" to="Grant-Forbes-Fourth" />
<trip type="noVar" depart="82" id="Sixth-Smithfield-WilliamPenn.46" from="Sixth-Smithfield-WilliamPenn" to="Fifth-WilliamPenn-Smithfield" />
<trip type="noVar" depart="83" id="WilliamPenn-Seventh-Sixth.52" from="WilliamPenn-Seventh-Sixth" to="Sixth-Ross-RHS" />
<trip type="noVar" depart="83" id="Grant-Fourth-Forbes.407" from="Grant-Fourth-Forbes" to="Forbes-WilliamPenn-Smithfield" />
<trip type="noVar" depart="83" id="Fifth-RHS-Ross.163" from="Fifth-RHS-Ross" to="Fifth-WilliamPenn-Smithfield" />
<trip type="noVar" depart="84" id="Forbes-RHS-Ross.339" from="Forbes-RHS-Ross" to="Forbes-WilliamPenn-Smithfield" />
<trip type="noVar" depart="86" id="WilliamPenn-Seventh-Sixth.207" from="WilliamPenn-Seventh-Sixth" to="WilliamPenn-Forbes-Fourth" />
<trip type="noVar" depart="86" id="Oliver-Smithfield-WilliamPenn.12" from="Oliver-Smithfield-WilliamPenn" to="Fifth-WilliamPenn-Smithfield" />
<trip type="noVar" depart="87" id="Fifth-Smithfield-WilliamPenn.101" from="Fifth-Smithfield-WilliamPenn" to="Fifth-Ross-RHS" />
<trip type="noVar" depart="87" id="Grant-Fourth-Forbes.10" from="Grant-Fourth-Forbes" to="Ross-Forbes-Fourth" />
<trip type="noVar" depart="87" id="Forbes-RHS-Ross.135" from="Forbes-RHS-Ross" to="Ross-Forbes-Fourth" />
<trip type="noVar" depart="88" id="Ross-Seventh-Sixth.299" from="Ross-Seventh-Sixth" to="Sixth-Ross-RHS" />
<trip type="noVar" depart="90" id="Grant-Seventh-Sixth.272" from="Grant-Seventh-Sixth" to="Grant-Forbes-Fourth" />
<trip type="noVar" depart="95" id="Grant-Seventh-Sixth.74" from="Grant-Seventh-Sixth" to="Grant-Forbes-Fourth" />
<trip type="noVar" depart="95" id="Grant-Fourth-Forbes.316" from="Grant-Fourth-Forbes" to="Grant-Sixth-Seventh" />
<trip type="noVar" depart="95" id="Grant-Fourth-Forbes.639" from="Grant-Fourth-Forbes" to="Grant-Sixth-Seventh" />
<trip type="noVar" depart="95" id="Ross-Seventh-Sixth.229" from="Ross-Seventh-Sixth" to="Ross-Forbes-Fourth" />
<trip type="noVar" depart="96" id="Grant-Fourth-Forbes.259" from="Grant-Fourth-Forbes" to="WilliamPenn-Forbes-Fourth" />
<trip type="noVar" depart="97" id="Forbes-RHS-Ross.19" from="Forbes-RHS-Ross" to="WilliamPenn-Forbes-Fourth" />
<trip type="noVar" depart="99" id="Sixth-RHS-Ross.127" from="Sixth-RHS-Ross" to="Sixth-WilliamPenn-Smithfield" />
<trip type="noVar" depart="100" id="Ross-Seventh-Sixth.45" from="Ross-Seventh-Sixth" to="Sixth-WilliamPenn-Smithfield" />
<trip type="noVar" depart="100" id="Sixth-RHS-Ross.242" from="Sixth-RHS-Ross" to="Grant-Sixth-Seventh" />
<trip type="noVar" depart="100" id="Ross-Fourth-Forbes.336" from="Ross-Fourth-Forbes" to="Grant-Forbes-Fourth" />
<trip type="noVar" depart="101" id="Grant-Seventh-Sixth.89" from="Grant-Seventh-Sixth" to="Grant-Forbes-Fourth" />
<trip type="noVar" depart="102" id="Fifth-RHS-Ross.84" from="Fifth-RHS-Ross" to="Ross-Forbes-Fourth" />
<trip type="noVar" depart="102" id="Fifth-RHS-Ross.130" from="Fifth-RHS-Ross" to="Forbes-WilliamPenn-Smithfield" />
<trip type="noVar" depart="102" id="Forbes-RHS-Ross.50" from="Forbes-RHS-Ross" to="Grant-Forbes-Fourth" />
<trip type="noVar" depart="104" id="Sixth-RHS-Ross.42" from="Sixth-RHS-Ross" to="Sixth-WilliamPenn-Smithfield" />
<trip type="noVar" depart="104" id="Sixth-RHS-Ross.57" from="Sixth-RHS-Ross" to="Fifth-WilliamPenn-Smithfield" />
<trip type="noVar" depart="108" id="Grant-Fourth-Forbes.453" from="Grant-Fourth-Forbes" to="Forbes-WilliamPenn-Smithfield" />
<trip type="noVar" depart="109" id="Oliver-Smithfield-WilliamPenn.73" from="Oliver-Smithfield-WilliamPenn" to="Fifth-WilliamPenn-Smithfield" />
<trip type="noVar" depart="110" id="Fifth-Smithfield-WilliamPenn.66" from="Fifth-Smithfield-WilliamPenn" to="Fifth-Ross-RHS" />
<trip type="noVar" depart="111" id="Oliver-Smithfield-WilliamPenn.25" from="Oliver-Smithfield-WilliamPenn" to="Forbes-WilliamPenn-Smithfield" />
<trip type="noVar" depart="113" id="Grant-Fourth-Forbes.136" from="Grant-Fourth-Forbes" to="Grant-Sixth-Seventh" />
<trip type="noVar" depart="114" id="Grant-Seventh-Sixth.252" from="Grant-Seventh-Sixth" to="Grant-Forbes-Fourth" />
<trip type="noVar" depart="114" id="Fifth-RHS-Ross.310" from="Fifth-RHS-Ross" to="Fifth-WilliamPenn-Smithfield" />
<trip type="noVar" depart="115" id="Grant-Fourth-Forbes.636" from="Grant-Fourth-Forbes" to="Forbes-Ross-RHS" />
<trip type="noVar" depart="115" id="Forbes-RHS-Ross.122" from="Forbes-RHS-Ross" to="Ross-Forbes-Fourth" />
<trip type="noVar" depart="117" id="Oliver-Smithfield-WilliamPenn.140" from="Oliver-Smithfield-WilliamPenn" to="WilliamPenn-Forbes-Fourth" />
<trip type="noVar" depart="117" id="Forbes-RHS-Ross.323" from="Forbes-RHS-Ross" to="Forbes-WilliamPenn-Smithfield" />
<trip type="noVar" depart="117" id="Ross-Fourth-Forbes.357" from="Ross-Fourth-Forbes" to="Forbes-Ross-RHS" />
<trip type="noVar" depart="118" id="Forbes-Smithfield-WilliamPenn.4" from="Forbes-Smithfield-WilliamPenn" to="WilliamPenn-Forbes-Fourth" />
<trip type="noVar" depart="119" id="Grant-Fourth-Forbes.89" from="Grant-Fourth-Forbes" to="Grant-Sixth-Seventh" />
<trip type="noVar" depart="121" id="Grant-Seventh-Sixth.346" from="Grant-Seventh-Sixth" to="Fifth-Ross-RHS" />
<trip type="noVar" depart="121" id="WilliamPenn-Seventh-Sixth.199" from="WilliamPenn-Seventh-Sixth" to="WilliamPenn-Forbes-Fourth" />
<trip type="noVar" depart="121" id="Sixth-Smithfield-WilliamPenn.208" from="Sixth-Smithfield-WilliamPenn" to="WilliamPenn-Forbes-Fourth" />
<trip type="noVar" depart="123" id="WilliamPenn-Seventh-Sixth.11" from="WilliamPenn-Seventh-Sixth" to="WilliamPenn-Forbes-Fourth" />
<trip type="noVar" depart="125" id="Grant-Fourth-Forbes.325" from="Grant-Fourth-Forbes" to="Ross-Sixth-Seventh" />
<trip type="noVar" depart="125" id="Ross-Fourth-Forbes.67" from="Ross-Fourth-Forbes" to="Grant-Forbes-Fourth" />
<trip type="noVar" depart="126" id="Ross-Fourth-Forbes.56" from="Ross-Fourth-Forbes" to="Grant-Forbes-Fourth" />
<trip type="noVar" depart="127" id="Sixth-Smithfield-WilliamPenn.136" from="Sixth-Smithfield-WilliamPenn" to="Sixth-Ross-RHS" />
<trip type="noVar" depart="128" id="Sixth-Smithfield-WilliamPenn.162" from="Sixth-Smithfield-WilliamPenn" to="Sixth-Ross-RHS" />
<trip type="noVar" depart="131" id="Grant-Seventh-Sixth.59" from="Grant-Seventh-Sixth" to="Grant-Forbes-Fourth" />
<trip type="noVar" depart="131" id="Forbes-Smithfield-WilliamPenn.53" from="Forbes-Smithfield-WilliamPenn" to="WilliamPenn-Forbes-Fourth" />
<trip type="noVar" depart="132" id="Ross-Seventh-Sixth.172" from="Ross-Seventh-Sixth" to="Oliver-WilliamPenn-Smithfield" />
<trip type="noVar" depart="132" id="Forbes-RHS-Ross.186" from="Forbes-RHS-Ross" to="Grant-Sixth-Seventh" />
<trip type="noVar" depart="133" id="Oliver-Smithfield-WilliamPenn.98" from="Oliver-Smithfield-WilliamPenn" to="Grant-Forbes-Fourth" />
<trip type="noVar" depart="133" id="Forbes-Smithfield-WilliamPenn.44" from="Forbes-Smithfield-WilliamPenn" to="WilliamPenn-Forbes-Fourth" />
<trip type="noVar" depart="133" id="Sixth-RHS-Ross.264" from="Sixth-RHS-Ross" to="Grant-Forbes-Fourth" />
<trip type="noVar" depart="133" id="Fifth-RHS-Ross.258" from="Fifth-RHS-Ross" to="Ross-Forbes-Fourth" />
<trip type="noVar" depart="135" id="Sixth-Smithfield-WilliamPenn.112" from="Sixth-Smithfield-WilliamPenn" to="Grant-Sixth-Seventh" />
<trip type="noVar" depart="137" id="Grant-Seventh-Sixth.77" from="Grant-Seventh-Sixth" to="Fifth-WilliamPenn-Smithfield" />
<trip type="noVar" depart="137" id="Grant-Fourth-Forbes.173" from="Grant-Fourth-Forbes" to="Grant-Sixth-Seventh" />
<trip type="noVar" depart="138" id="Grant-Fourth-Forbes.480" from="Grant-Fourth-Forbes" to="Sixth-Ross-RHS" />
<trip type="noVar" depart="141" id="Ross-Fourth-Forbes.191" from="Ross-Fourth-Forbes" to="Forbes-WilliamPenn-Smithfield" />
<trip type="noVar" depart="142" id="WilliamPenn-Seventh-Sixth.174" from="WilliamPenn-Seventh-Sixth" to="Fifth-WilliamPenn-Smithfield" />
<trip type="noVar" depart="144" id="Forbes-RHS-Ross.359" from="Forbes-RHS-Ross" to="Ross-Forbes-Fourth" />
<trip type="noVar" depart="144" id="Ross-Fourth-Forbes.356" from="Ross-Fourth-Forbes" to="Fifth-Ross-RHS" />
<trip type="noVar" depart="145" id="Grant-Fourth-Forbes.443" from="Grant-Fourth-Forbes" to="Fifth-WilliamPenn-Smithfield" />
<trip type="noVar" depart="148" id="WilliamPenn-Seventh-Sixth.181" from="WilliamPenn-Seventh-Sixth" to="Oliver-WilliamPenn-Smithfield" />
<trip type="noVar" depart="148" id="Ross-Seventh-Sixth.233" from="Ross-Seventh-Sixth" to="WilliamPenn-Forbes-Fourth" />
<trip type="noVar" depart="148" id="Ross-Seventh-Sixth.263" from="Ross-Seventh-Sixth" to="Ross-Forbes-Fourth" />
<trip type="noVar" depart="150" id="Grant-Seventh-Sixth.179" from="Grant-Seventh-Sixth" to="Ross-Sixth-Seventh" />
<trip type="noVar" depart="150" id="Grant-Seventh-Sixth.389" from="Grant-Seventh-Sixth" to="Grant-Forbes-Fourth" />
<trip type="noVar" depart="152" id="Grant-Seventh-Sixth.377" from="Grant-Seventh-Sixth" to="Grant-Forbes-Fourth" />
<trip type="noVar" depart="152" id="Ross-Seventh-Sixth.0" from="Ross-Seventh-Sixth" to="Grant-Sixth-Seventh" />
<trip type="noVar" depart="152" id="Sixth-RHS-Ross.276" from="Sixth-RHS-Ross" to="Grant-Sixth-Seventh" />
<trip type="noVar" depart="153" id="Grant-Fourth-Forbes.216" from="Grant-Fourth-Forbes" to="Fifth-WilliamPenn-Smithfield" />
<trip type="noVar" depart="155" id="Fifth-Smithfield-WilliamPenn.32" from="Fifth-Smithfield-WilliamPenn" to="Fifth-Ross-RHS" />
<trip type="noVar" depart="155" id="Ross-Seventh-Sixth.122" from="Ross-Seventh-Sixth" to="Sixth-WilliamPenn-Smithfield" />
<trip type="noVar" depart="156" id="Grant-Fourth-Forbes.430" from="Grant-Fourth-Forbes" to="Grant-Sixth-Seventh" />
<trip type="noVar" depart="158" id="Sixth-Smithfield-WilliamPenn.97" from="Sixth-Smithfield-WilliamPenn" to="Sixth-WilliamPenn-Smithfield" />
<trip type="noVar" depart="158" id="Ross-Seventh-Sixth.98" from="Ross-Seventh-Sixth" to="Grant-Sixth-Seventh" />
<trip type="noVar" depart="159" id="Fifth-RHS-Ross.68" from="Fifth-RHS-Ross" to="Fifth-WilliamPenn-Smithfield" />
<trip type="noVar" depart="160" id="Grant-Seventh-Sixth.249" from="Grant-Seventh-Sixth" to="Grant-Forbes-Fourth" />
<trip type="noVar" depart="160" id="WilliamPenn-Seventh-Sixth.215" from="WilliamPenn-Seventh-Sixth" to="WilliamPenn-Forbes-Fourth" />
<trip type="noVar" depart="160" id="Forbes-RHS-Ross.174" from="Forbes-RHS-Ross" to="Grant-Forbes-Fourth" />
<trip type="noVar" depart="161" id="Grant-Fourth-Forbes.368" from="Grant-Fourth-Forbes" to="Ross-Sixth-Seventh" />
<trip type="noVar" depart="161" id="Ross-Fourth-Forbes.70" from="Ross-Fourth-Forbes" to="Forbes-Ross-RHS" />
<trip type="noVar" depart="162" id="Oliver-Smithfield-WilliamPenn.92" from="Oliver-Smithfield-WilliamPenn" to="Grant-Sixth-Seventh" />
<trip type="noVar" depart="163" id="WilliamPenn-Seventh-Sixth.138" from="WilliamPenn-Seventh-Sixth" to="Oliver-WilliamPenn-Smithfield" />
<trip type="noVar" depart="163" id="Grant-Fourth-Forbes.517" from="Grant-Fourth-Forbes" to="Sixth-Ross-RHS" />
<trip type="noVar" depart="163" id="Forbes-RHS-Ross.105" from="Forbes-RHS-Ross" to="Grant-Forbes-Fourth" />
<trip type="noVar" depart="164" id="WilliamPenn-Seventh-Sixth.168" from="WilliamPenn-Seventh-Sixth" to="Fifth-WilliamPenn-Smithfield" />
<trip type="noVar" depart="164" id="Fifth-RHS-Ross.45" from="Fifth-RHS-Ross" to="Fifth-WilliamPenn-Smithfield" />
<trip type="noVar" depart="165" id="Forbes-RHS-Ross.250" from="Forbes-RHS-Ross" to="Ross-Forbes-Fourth" />
<trip type="noVar" depart="167" id="Grant-Fourth-Forbes.507" from="Grant-Fourth-Forbes" to="Fifth-WilliamPenn-Smithfield" />
<trip type="noVar" depart="167" id="Ross-Seventh-Sixth.205" from="Ross-Seventh-Sixth" to="Sixth-Ross-RHS" />
<trip type="noVar" depart="169" id="Fifth-RHS-Ross.16" from="Fifth-RHS-Ross" to="Fifth-WilliamPenn-Smithfield" />
<trip type="noVar" depart="170" id="Grant-Seventh-Sixth.396" from="Grant-Seventh-Sixth" to="WilliamPenn-Forbes-Fourth" />
<trip type="noVar" depart="171" id="Sixth-RHS-Ross.96" from="Sixth-RHS-Ross" to="Sixth-WilliamPenn-Smithfield" />
<trip type="noVar" depart="171" id="Forbes-RHS-Ross.2" from="Forbes-RHS-Ross" to="Grant-Forbes-Fourth" />
<trip type="noVar" depart="173" id="Grant-Fourth-Forbes.118" from="Grant-Fourth-Forbes" to="Grant-Sixth-Seventh" />
<trip type="noVar" depart="175" id="Grant-Seventh-Sixth.173" from="Grant-Seventh-Sixth" to="Grant-Forbes-Fourth" />
<trip type="noVar" depart="175" id="Grant-Seventh-Sixth.351" from="Grant-Seventh-Sixth" to="Ross-Sixth-Seventh" />
<trip type="noVar" depart="175" id="WilliamPenn-Seventh-Sixth.178" from="WilliamPenn-Seventh-Sixth" to="WilliamPenn-Forbes-Fourth" />
<trip type="noVar" depart="176" id="Fifth-Smithfield-WilliamPenn.90" from="Fifth-Smithfield-WilliamPenn" to="Fifth-Ross-RHS" />
<trip type="noVar" depart="176" id="Fifth-RHS-Ross.171" from="Fifth-RHS-Ross" to="Grant-Sixth-Seventh" />
<trip type="noVar" depart="178" id="Sixth-Smithfield-WilliamPenn.174" from="Sixth-Smithfield-WilliamPenn" to="WilliamPenn-Forbes-Fourth" />
<trip type="noVar" depart="178" id="Fifth-RHS-Ross.52" from="Fifth-RHS-Ross" to="Fifth-WilliamPenn-Smithfield" />
<trip type="noVar" depart="179" id="Grant-Fourth-Forbes.167" from="Grant-Fourth-Forbes" to="Grant-Sixth-Seventh" />
<trip type="noVar" depart="179" id="Ross-Seventh-Sixth.292" from="Ross-Seventh-Sixth" to="Grant-Sixth-Seventh" />
<trip type="noVar" depart="180" id="Grant-Fourth-Forbes.544" from="Grant-Fourth-Forbes" to="Ross-Sixth-Seventh" />
<trip type="noVar" depart="180" id="Forbes-Smithfield-WilliamPenn.50" from="Forbes-Smithfield-WilliamPenn" to="WilliamPenn-Forbes-Fourth" />
<trip type="noVar" depart="182" id="Fifth-RHS-Ross.113" from="Fifth-RHS-Ross" to="Fifth-WilliamPenn-Smithfield" />
<trip type="noVar" depart="182" id="Ross-Fourth-Forbes.248" from="Ross-Fourth-Forbes" to="Fifth-Ross-RHS" />
<trip type="noVar" depart="185" id="Ross-Fourth-Forbes.153" from="Ross-Fourth-Forbes" to="Forbes-Ross-RHS" />
<trip type="noVar" depart="186" id="Grant-Fourth-Forbes.444" from="Grant-Fourth-Forbes" to="Sixth-WilliamPenn-Smithfield" />
<trip type="noVar" depart="187" id="Ross-Fourth-Forbes.106" from="Ross-Fourth-Forbes" to="Sixth-WilliamPenn-Smithfield" />
<trip type="noVar" depart="190" id="Sixth-RHS-Ross.315" from="Sixth-RHS-Ross" to="Ross-Forbes-Fourth" />
<trip type="noVar" depart="191" id="Grant-Seventh-Sixth.265" from="Grant-Seventh-Sixth" to="Sixth-Ross-RHS" />
<trip type="noVar" depart="191" id="Sixth-Smithfield-WilliamPenn.209" from="Sixth-Smithfield-WilliamPenn" to="Forbes-WilliamPenn-Smithfield" />
<trip type="noVar" depart="191" id="Forbes-RHS-Ross.208" from="Forbes-RHS-Ross" to="Ross-Forbes-Fourth" />
<trip type="noVar" depart="192" id="Ross-Fourth-Forbes.85" from="Ross-Fourth-Forbes" to="Forbes-Ross-RHS" />
<trip type="noVar" depart="194" id="Grant-Seventh-Sixth.240" from="Grant-Seventh-Sixth" to="Fifth-Ross-RHS" />
<trip type="noVar" depart="196" id="Grant-Seventh-Sixth.36" from="Grant-Seventh-Sixth" to="Fifth-WilliamPenn-Smithfield" />
<trip type="noVar" depart="197" id="Grant-Fourth-Forbes.331" from="Grant-Fourth-Forbes" to="Forbes-Ross-RHS" />
<trip type="noVar" depart="197" id="Sixth-RHS-Ross.46" from="Sixth-RHS-Ross" to="Oliver-WilliamPenn-Smithfield" />
<trip type="noVar" depart="198" id="Grant-Seventh-Sixth.254" from="Grant-Seventh-Sixth" to="Grant-Forbes-Fourth" />
<trip type="noVar" depart="198" id="Forbes-RHS-Ross.89" from="Forbes-RHS-Ross" to="Ross-Forbes-Fourth" />
<trip type="noVar" depart="199" id="Grant-Fourth-Forbes.596" from="Grant-Fourth-Forbes" to="Fifth-WilliamPenn-Smithfield" />
<trip type="noVar" depart="200" id="WilliamPenn-Seventh-Sixth.220" from="WilliamPenn-Seventh-Sixth" to="WilliamPenn-Forbes-Fourth" />
<trip type="noVar" depart="200" id="Grant-Fourth-Forbes.51" from="Grant-Fourth-Forbes" to="Grant-Sixth-Seventh" />
<trip type="noVar" depart="200" id="Ross-Seventh-Sixth.87" from="Ross-Seventh-Sixth" to="Ross-Forbes-Fourth" />
<trip type="noVar" depart="200" id="Fifth-RHS-Ross.53" from="Fifth-RHS-Ross" to="Fifth-WilliamPenn-Smithfield" />
<trip type="noVar" depart="201" id="Sixth-RHS-Ross.327" from="Sixth-RHS-Ross" to="Grant-Sixth-Seventh" />
<trip type="noVar" depart="202" id="Sixth-RHS-Ross.202" from="Sixth-RHS-Ross" to="Grant-Sixth-Seventh" />
<trip type="noVar" depart="203" id="Grant-Fourth-Forbes.465" from="Grant-Fourth-Forbes" to="Forbes-Ross-RHS" />
<trip type="noVar" depart="209" id="Grant-Fourth-Forbes.473" from="Grant-Fourth-Forbes" to="Grant-Sixth-Seventh" />
<trip type="noVar" depart="210" id="Forbes-RHS-Ross.91" from="Forbes-RHS-Ross" to="Ross-Forbes-Fourth" />
<trip type="noVar" depart="211" id="Fifth-Smithfield-WilliamPenn.4" from="Fifth-Smithfield-WilliamPenn" to="Fifth-Ross-RHS" />
<trip type="noVar" depart="211" id="Forbes-RHS-Ross.236" from="Forbes-RHS-Ross" to="Ross-Forbes-Fourth" />
<trip type="noVar" depart="212" id="Oliver-Smithfield-WilliamPenn.70" from="Oliver-Smithfield-WilliamPenn" to="Grant-Sixth-Seventh" />
<trip type="noVar" depart="213" id="Sixth-RHS-Ross.148" from="Sixth-RHS-Ross" to="Grant-Forbes-Fourth" />
<trip type="noVar" depart="214" id="Ross-Fourth-Forbes.50" from="Ross-Fourth-Forbes" to="Forbes-Ross-RHS" />
<trip type="noVar" depart="215" id="Ross-Fourth-Forbes.308" from="Ross-Fourth-Forbes" to="Grant-Sixth-Seventh" />
<trip type="noVar" depart="216" id="Sixth-Smithfield-WilliamPenn.100" from="Sixth-Smithfield-WilliamPenn" to="Grant-Sixth-Seventh" />
<trip type="noVar" depart="217" id="Sixth-Smithfield-WilliamPenn.220" from="Sixth-Smithfield-WilliamPenn" to="Sixth-Ross-RHS" />
<trip type="noVar" depart="217" id="Grant-Fourth-Forbes.203" from="Grant-Fourth-Forbes" to="Fifth-Ross-RHS" />
<trip type="noVar" depart="217" id="Sixth-RHS-Ross.215" from="Sixth-RHS-Ross" to="Fifth-Ross-RHS" />
<trip type="noVar" depart="220" id="Grant-Seventh-Sixth.54" from="Grant-Seventh-Sixth" to="Grant-Forbes-Fourth" />
<trip type="noVar" depart="220" id="Grant-Fourth-Forbes.47" from="Grant-Fourth-Forbes" to="Sixth-Ross-RHS" />
<trip type="noVar" depart="220" id="Fifth-RHS-Ross.261" from="Fifth-RHS-Ross" to="Ross-Forbes-Fourth" />
<trip type="noVar" depart="221" id="Fifth-Smithfield-WilliamPenn.115" from="Fifth-Smithfield-WilliamPenn" to="Ross-Forbes-Fourth" />
<trip type="noVar" depart="222" id="Grant-Fourth-Forbes.373" from="Grant-Fourth-Forbes" to="Grant-Forbes-Fourth" />
<trip type="noVar" depart="223" id="Ross-Seventh-Sixth.24" from="Ross-Seventh-Sixth" to="Fifth-Ross-RHS" />
<trip type="noVar" depart="225" id="Grant-Seventh-Sixth.103" from="Grant-Seventh-Sixth" to="Sixth-Ross-RHS" />
<trip type="noVar" depart="225" id="Sixth-Smithfield-WilliamPenn.103" from="Sixth-Smithfield-WilliamPenn" to="WilliamPenn-Forbes-Fourth" />
<trip type="noVar" depart="225" id="Grant-Fourth-Forbes.179" from="Grant-Fourth-Forbes" to="Sixth-Ross-RHS" />