<?xml version="1.0" encoding="UTF-8"?>
<routes xmlns:xsi="http://www.w3.org/2001/XMLSchema-instance" xsi:noNamespaceSchemaLocation="http://sumo.dlr.de/xsd/routes_file.xsd">

<vType id="noVar" speedFactor="1.0" speedDev="0.0"/>
<route id="route_Grant-Seventh-Sixth.9" edges="Grant-Seventh-Sixth Grant-Sixth-Oliver Grant-Oliver-Fifth Fifth-Grant-Ross Fifth-Grant-Ross-2 Fifth-Ross-RHS" />
<vehicle type="noVar" depart="0" id="Grant-Seventh-Sixth.9" route="route_Grant-Seventh-Sixth.9" />
<route id="route_WilliamPenn-Seventh-Sixth.19" edges="WilliamPenn-Seventh-Sixth WilliamPenn-Sixth-Oliver Oliver-WilliamPenn-Grant Grant-Oliver-Fifth Grant-Fifth-Forbes Grant-Forbes-Fourth" />
<vehicle type="noVar" depart="0" id="WilliamPenn-Seventh-Sixth.19" route="route_WilliamPenn-Seventh-Sixth.19" />
<route id="route_Ross-Seventh-Sixth.25" edges="Ross-Seventh-Sixth Ross-Sixth-Fifth Fifth-Ross-RHS" />
<vehicle type="noVar" depart="0" id="Ross-Seventh-Sixth.25" route="route_Ross-Seventh-Sixth.25" />
<route id="route_Forbes-RHS-Ross.432" edges="Forbes-RHS-Ross Ross-Forbes-Fourth" />
<vehicle type="noVar" depart="0" id="Forbes-RHS-Ross.432" route="route_Forbes-RHS-Ross.432" />
<route id="route_Ross-Seventh-Sixth.523" edges="Ross-Seventh-Sixth Sixth-Ross-RHS" />
<vehicle type="noVar" depart="2" id="Ross-Seventh-Sixth.523" route="route_Ross-Seventh-Sixth.523" />
<route id="route_Grant-Seventh-Sixth.528" edges="Grant-Seventh-Sixth Grant-Sixth-Oliver Grant-Oliver-Fifth Grant-Fifth-Forbes Grant-Forbes-Fourth" />
<vehicle type="noVar" depart="3" id="Grant-Seventh-Sixth.528" route="route_Grant-Seventh-Sixth.528" />
<route id="route_Fifth-RHS-Ross.311" edges="Fifth-RHS-Ross Ross-Fifth-Sixth Sixth-Ross-RHS" />
<vehicle type="noVar" depart="3" id="Fifth-RHS-Ross.311" route="route_Fifth-RHS-Ross.311" />
<route id="route_Oliver-Smithfield-WilliamPenn.123" edges="Oliver-Smithfield-WilliamPenn Oliver-WilliamPenn-Grant Grant-Oliver-Sixth Grant-Sixth-Seventh" />
<vehicle type="noVar" depart="4" id="Oliver-Smithfield-WilliamPenn.123" route="route_Oliver-Smithfield-WilliamPenn.123" />
<route id="route_Ross-Seventh-Sixth.19" edges="Ross-Seventh-Sixth Ross-Sixth-Fifth Fifth-Ross-RHS" />
<vehicle type="noVar" depart="5" id="Ross-Seventh-Sixth.19" route="route_Ross-Seventh-Sixth.19" />
<route id="route_Sixth-Smithfield-WilliamPenn.421" edges="Sixth-Smithfield-WilliamPenn Sixth-WilliamPenn-Grant Sixth-Grant-Ross Sixth-Ross-RHS" />
<vehicle type="noVar" depart="6" id="Sixth-Smithfield-WilliamPenn.421" route="route_Sixth-Smithfield-WilliamPenn.421" />
<route id="route_Grant-Fourth-Forbes.376" edges="Grant-Fourth-Forbes Grant-Fourth-Forbes-2 Forbes-Grant-Ross Forbes-Ross-RHS" />
<vehicle type="noVar" depart="8" id="Grant-Fourth-Forbes.376" route="route_Grant-Fourth-Forbes.376" />
<route id="route_Fifth-RHS-Ross.7" edges="Fifth-RHS-Ross Fifth-Ross-Grant Fifth-Ross-Grant-2 Fifth-Grant-WilliamPenn Fifth-WilliamPenn-Smithfield" />
<vehicle type="noVar" depart="8" id="Fifth-RHS-Ross.7" route="route_Fifth-RHS-Ross.7" />
<route id="route_Ross-Fourth-Forbes.401" edges="Ross-Fourth-Forbes Ross-Forbes-Fifth Ross-Fifth-Sixth Sixth-Ross-Grant Grant-Sixth-Seventh" />
<vehicle type="noVar" depart="8" id="Ross-Fourth-Forbes.401" route="route_Ross-Fourth-Forbes.401" />
<route id="route_Oliver-Smithfield-WilliamPenn.182" edges="Oliver-Smithfield-WilliamPenn Oliver-WilliamPenn-Grant Grant-Oliver-Sixth Grant-Sixth-Seventh" />
<vehicle type="noVar" depart="9" id="Oliver-Smithfield-WilliamPenn.182" route="route_Oliver-Smithfield-WilliamPenn.182" />
<route id="route_Oliver-Smithfield-WilliamPenn.308" edges="Oliver-Smithfield-WilliamPenn Oliver-WilliamPenn-Grant Grant-Oliver-Sixth Grant-Sixth-Seventh" />
<vehicle type="noVar" depart="10" id="Oliver-Smithfield-WilliamPenn.308" route="route_Oliver-Smithfield-WilliamPenn.308" />
<route id="route_Ross-Seventh-Sixth.440" edges="Ross-Seventh-Sixth Sixth-Ross-RHS" />
<vehicle type="noVar" depart="10" id="Ross-Seventh-Sixth.440" route="route_Ross-Seventh-Sixth.440" />
<route id="route_Forbes-RHS-Ross.117" edges="Forbes-RHS-Ross Ross-Forbes-Fourth" />
<vehicle type="noVar" depart="10" id="Forbes-RHS-Ross.117" route="route_Forbes-RHS-Ross.117" />
<route id="route_Oliver-Smithfield-WilliamPenn.315" edges="Oliver-Smithfield-WilliamPenn Oliver-WilliamPenn-Grant Grant-Oliver-Fifth Grant-Fifth-Forbes Grant-Forbes-Fourth" />
<vehicle type="noVar" depart="11" id="Oliver-Smithfield-WilliamPenn.315" route="route_Oliver-Smithfield-WilliamPenn.315" />
<route id="route_Sixth-RHS-Ross.34" edges="Sixth-RHS-Ross Sixth-Ross-Grant Sixth-Grant-WilliamPenn WilliamPenn-Sixth-Oliver Oliver-WilliamPenn-Grant Grant-Oliver-Sixth Grant-Sixth-Seventh" />
<vehicle type="noVar" depart="11" id="Sixth-RHS-Ross.34" route="route_Sixth-RHS-Ross.34" />
<route id="route_Fifth-RHS-Ross.147" edges="Fifth-RHS-Ross Fifth-Ross-Grant Fifth-Ross-Grant-2 Fifth-Grant-WilliamPenn Fifth-WilliamPenn-Smithfield" />
<vehicle type="noVar" depart="11" id="Fifth-RHS-Ross.147" route="route_Fifth-RHS-Ross.147" />
<route id="route_Fifth-RHS-Ross.299" edges="Fifth-RHS-Ross Fifth-Ross-Grant Fifth-Ross-Grant-2 Grant-Fifth-Oliver Grant-Oliver-Sixth Sixth-Grant-WilliamPenn WilliamPenn-Sixth-Oliver Oliver-WilliamPenn-Smithfield" />
<vehicle type="noVar" depart="11" id="Fifth-RHS-Ross.299" route="route_Fifth-RHS-Ross.299" />
<route id="route_Forbes-RHS-Ross.213" edges="Forbes-RHS-Ross Forbes-Ross-Grant Grant-Forbes-Fourth" />
<vehicle type="noVar" depart="11" id="Forbes-RHS-Ross.213" route="route_Forbes-RHS-Ross.213" />
<route id="route_Ross-Fourth-Forbes.554" edges="Ross-Fourth-Forbes Forbes-Ross-RHS" />
<vehicle type="noVar" depart="12" id="Ross-Fourth-Forbes.554" route="route_Ross-Fourth-Forbes.554" />
<route id="route_WilliamPenn-Seventh-Sixth.201" edges="WilliamPenn-Seventh-Sixth Sixth-WilliamPenn-Smithfield" />
<vehicle type="noVar" depart="13" id="WilliamPenn-Seventh-Sixth.201" route="route_WilliamPenn-Seventh-Sixth.201" />
<route id="route_Sixth-Smithfield-WilliamPenn.271" edges="Sixth-Smithfield-WilliamPenn Sixth-WilliamPenn-Grant Sixth-Grant-Ross Sixth-Ross-RHS" />
<vehicle type="noVar" depart="13" id="Sixth-Smithfield-WilliamPenn.271" route="route_Sixth-Smithfield-WilliamPenn.271" />
<route id="route_Ross-Seventh-Sixth.488" edges="Ross-Seventh-Sixth Sixth-Ross-Grant Grant-Sixth-Oliver Grant-Oliver-Fifth Grant-Fifth-Forbes Forbes-Grant-WilliamPenn Forbes-WilliamPenn-Smithfield" />
<vehicle type="noVar" depart="14" id="Ross-Seventh-Sixth.488" route="route_Ross-Seventh-Sixth.488" />
<route id="route_Oliver-Smithfield-WilliamPenn.293" edges="Oliver-Smithfield-WilliamPenn Oliver-WilliamPenn-Grant Grant-Oliver-Sixth Sixth-Grant-Ross Sixth-Ross-RHS" />
<vehicle type="noVar" depart="15" id="Oliver-Smithfield-WilliamPenn.293" route="route_Oliver-Smithfield-WilliamPenn.293" />
<route id="route_Ross-Seventh-Sixth.582" edges="Ross-Seventh-Sixth Ross-Sixth-Fifth Fifth-Ross-RHS" />
<vehicle type="noVar" depart="15" id="Ross-Seventh-Sixth.582" route="route_Ross-Seventh-Sixth.582" />
<route id="route_Oliver-Smithfield-WilliamPenn.3" edges="Oliver-Smithfield-WilliamPenn Oliver-WilliamPenn-Grant Grant-Oliver-Sixth Grant-Sixth-Seventh" />
<vehicle type="noVar" depart="16" id="Oliver-Smithfield-WilliamPenn.3" route="route_Oliver-Smithfield-WilliamPenn.3" />
<route id="route_Ross-Seventh-Sixth.606" edges="Ross-Seventh-Sixth Sixth-Ross-RHS" />
<vehicle type="noVar" depart="16" id="Ross-Seventh-Sixth.606" route="route_Ross-Seventh-Sixth.606" />
<route id="route_Oliver-Smithfield-WilliamPenn.129" edges="Oliver-Smithfield-WilliamPenn Oliver-WilliamPenn-Grant Grant-Oliver-Sixth Sixth-Grant-Ross Sixth-Ross-RHS" />
<vehicle type="noVar" depart="17" id="Oliver-Smithfield-WilliamPenn.129" route="route_Oliver-Smithfield-WilliamPenn.129" />
<route id="route_Ross-Seventh-Sixth.175" edges="Ross-Seventh-Sixth Sixth-Ross-RHS" />
<vehicle type="noVar" depart="17" id="Ross-Seventh-Sixth.175" route="route_Ross-Seventh-Sixth.175" />
<route id="route_Ross-Seventh-Sixth.593" edges="Ross-Seventh-Sixth Ross-Sixth-Fifth Ross-Fifth-Forbes Forbes-Ross-RHS" />
<vehicle type="noVar" depart="17" id="Ross-Seventh-Sixth.593" route="route_Ross-Seventh-Sixth.593" />
<route id="route_Oliver-Smithfield-WilliamPenn.57" edges="Oliver-Smithfield-WilliamPenn Oliver-WilliamPenn-Grant Grant-Oliver-Sixth Grant-Sixth-Seventh" />
<vehicle type="noVar" depart="18" id="Oliver-Smithfield-WilliamPenn.57" route="route_Oliver-Smithfield-WilliamPenn.57" />
<route id="route_Forbes-RHS-Ross.292" edges="Forbes-RHS-Ross Forbes-Ross-Grant Forbes-Grant-WilliamPenn WilliamPenn-Forbes-Fourth" />
<vehicle type="noVar" depart="18" id="Forbes-RHS-Ross.292" route="route_Forbes-RHS-Ross.292" />
<route id="route_Forbes-RHS-Ross.381" edges="Forbes-RHS-Ross Forbes-Ross-Grant Forbes-Grant-WilliamPenn WilliamPenn-Forbes-Fourth" />
<vehicle type="noVar" depart="18" id="Forbes-RHS-Ross.381" route="route_Forbes-RHS-Ross.381" />
<route id="route_Grant-Seventh-Sixth.265" edges="Grant-Seventh-Sixth Grant-Sixth-Oliver Grant-Oliver-Fifth Grant-Fifth-Forbes Grant-Forbes-Fourth" />
<vehicle type="noVar" depart="20" id="Grant-Seventh-Sixth.265" route="route_Grant-Seventh-Sixth.265" />
<route id="route_Sixth-Smithfield-WilliamPenn.186" edges="Sixth-Smithfield-WilliamPenn Sixth-WilliamPenn-Grant Sixth-Grant-Ross Sixth-Ross-RHS" />
<vehicle type="noVar" depart="21" id="Sixth-Smithfield-WilliamPenn.186" route="route_Sixth-Smithfield-WilliamPenn.186" />
<route id="route_Grant-Fourth-Forbes.468" edges="Grant-Fourth-Forbes Grant-Fourth-Forbes-2 Forbes-Grant-WilliamPenn WilliamPenn-Forbes-Fourth" />
<vehicle type="noVar" depart="21" id="Grant-Fourth-Forbes.468" route="route_Grant-Fourth-Forbes.468" />
<route id="route_Forbes-RHS-Ross.147" edges="Forbes-RHS-Ross Forbes-Ross-Grant Grant-Forbes-Fifth Grant-Fifth-Oliver Grant-Oliver-Sixth Grant-Sixth-Seventh" />
<vehicle type="noVar" depart="21" id="Forbes-RHS-Ross.147" route="route_Forbes-RHS-Ross.147" />
<route id="route_Ross-Seventh-Sixth.263" edges="Ross-Seventh-Sixth Ross-Sixth-Fifth Ross-Fifth-Forbes Ross-Forbes-Fourth" />
<vehicle type="noVar" depart="22" id="Ross-Seventh-Sixth.263" route="route_Ross-Seventh-Sixth.263" />
<route id="route_Grant-Seventh-Sixth.82" edges="Grant-Seventh-Sixth Grant-Sixth-Oliver Grant-Oliver-Fifth Grant-Fifth-Forbes Grant-Forbes-Fourth" />
<vehicle type="noVar" depart="23" id="Grant-Seventh-Sixth.82" route="route_Grant-Seventh-Sixth.82" />
<route id="route_Ross-Fourth-Forbes.280" edges="Ross-Fourth-Forbes Forbes-Ross-Grant Forbes-Grant-WilliamPenn WilliamPenn-Forbes-Fourth" />
<vehicle type="noVar" depart="23" id="Ross-Fourth-Forbes.280" route="route_Ross-Fourth-Forbes.280" />
<route id="route_Ross-Fourth-Forbes.540" edges="Ross-Fourth-Forbes Forbes-Ross-RHS" />
<vehicle type="noVar" depart="24" id="Ross-Fourth-Forbes.540" route="route_Ross-Fourth-Forbes.540" />
<route id="route_Grant-Seventh-Sixth.493" edges="Grant-Seventh-Sixth Sixth-Grant-Ross Sixth-Ross-RHS" />
<vehicle type="noVar" depart="29" id="Grant-Seventh-Sixth.493" route="route_Grant-Seventh-Sixth.493" />
<route id="route_Forbes-RHS-Ross.132" edges="Forbes-RHS-Ross Forbes-Ross-Grant Grant-Forbes-Fourth" />
<vehicle type="noVar" depart="29" id="Forbes-RHS-Ross.132" route="route_Forbes-RHS-Ross.132" />
<route id="route_Grant-Fourth-Forbes.143" edges="Grant-Fourth-Forbes Grant-Fourth-Forbes-2 Grant-Forbes-Fifth Grant-Fifth-Oliver Grant-Oliver-Sixth Grant-Sixth-Seventh" />
<vehicle type="noVar" depart="30" id="Grant-Fourth-Forbes.143" route="route_Grant-Fourth-Forbes.143" />
<route id="route_Grant-Fourth-Forbes.2" edges="Grant-Fourth-Forbes Grant-Fourth-Forbes-2 Grant-Forbes-Fifth Fifth-Grant-Ross Fifth-Grant-Ross-2 Ross-Fifth-Sixth Ross-Sixth-Seventh" />
<vehicle type="noVar" depart="31" id="Grant-Fourth-Forbes.2" route="route_Grant-Fourth-Forbes.2" />
<route id="route_Fifth-RHS-Ross.221" edges="Fifth-RHS-Ross Fifth-Ross-Grant Fifth-Ross-Grant-2 Grant-Fifth-Forbes Grant-Forbes-Fourth" />
<vehicle type="noVar" depart="31" id="Fifth-RHS-Ross.221" route="route_Fifth-RHS-Ross.221" />
<route id="route_Grant-Seventh-Sixth.341" edges="Grant-Seventh-Sixth Sixth-Grant-Ross Sixth-Ross-RHS" />
<vehicle type="noVar" depart="32" id="Grant-Seventh-Sixth.341" route="route_Grant-Seventh-Sixth.341" />
<route id="route_WilliamPenn-Seventh-Sixth.146" edges="WilliamPenn-Seventh-Sixth Sixth-WilliamPenn-Grant Sixth-Grant-Ross Sixth-Ross-RHS" />
<vehicle type="noVar" depart="33" id="WilliamPenn-Seventh-Sixth.146" route="route_WilliamPenn-Seventh-Sixth.146" />
<route id="route_Sixth-Smithfield-WilliamPenn.331" edges="Sixth-Smithfield-WilliamPenn Sixth-WilliamPenn-Grant Sixth-Grant-Ross Sixth-Ross-RHS" />
<vehicle type="noVar" depart="33" id="Sixth-Smithfield-WilliamPenn.331" route="route_Sixth-Smithfield-WilliamPenn.331" />
<route id="route_Forbes-RHS-Ross.171" edges="Forbes-RHS-Ross Forbes-Ross-Grant Forbes-Grant-WilliamPenn Forbes-WilliamPenn-Smithfield" />
<vehicle type="noVar" depart="35" id="Forbes-RHS-Ross.171" route="route_Forbes-RHS-Ross.171" />
<route id="route_Grant-Fourth-Forbes.528" edges="Grant-Fourth-Forbes Grant-Fourth-Forbes-2 Forbes-Grant-WilliamPenn WilliamPenn-Forbes-Fourth" />
<vehicle type="noVar" depart="36" id="Grant-Fourth-Forbes.528" route="route_Grant-Fourth-Forbes.528" />
<route id="route_Forbes-Smithfield-WilliamPenn.44" edges="Forbes-Smithfield-WilliamPenn WilliamPenn-Forbes-Fourth" />
<vehicle type="noVar" depart="36" id="Forbes-Smithfield-WilliamPenn.44" route="route_Forbes-Smithfield-WilliamPenn.44" />
<route id="route_Grant-Seventh-Sixth.101" edges="Grant-Seventh-Sixth Grant-Sixth-Oliver Grant-Oliver-Fifth Grant-Fifth-Forbes Grant-Forbes-Fourth" />
<vehicle type="noVar" depart="37" id="Grant-Seventh-Sixth.101" route="route_Grant-Seventh-Sixth.101" />
<route id="route_Ross-Fourth-Forbes.66" edges="Ross-Fourth-Forbes Ross-Forbes-Fifth Ross-Fifth-Sixth Ross-Sixth-Seventh" />
<vehicle type="noVar" depart="38" id="Ross-Fourth-Forbes.66" route="route_Ross-Fourth-Forbes.66" />
<route id="route_Ross-Fourth-Forbes.93" edges="Ross-Fourth-Forbes Ross-Forbes-Fifth Fifth-Ross-Grant Fifth-Ross-Grant-2 Fifth-Grant-WilliamPenn Fifth-WilliamPenn-Smithfield" />
<vehicle type="noVar" depart="38" id="Ross-Fourth-Forbes.93" route="route_Ross-Fourth-Forbes.93" />
<route id="route_Fifth-RHS-Ross.121" edges="Fifth-RHS-Ross Ross-Fifth-Forbes Ross-Forbes-Fourth" />
<vehicle type="noVar" depart="39" id="Fifth-RHS-Ross.121" route="route_Fifth-RHS-Ross.121" />
<route id="route_Fifth-RHS-Ross.298" edges="Fifth-RHS-Ross Ross-Fifth-Sixth Ross-Sixth-Seventh" />
<vehicle type="noVar" depart="39" id="Fifth-RHS-Ross.298" route="route_Fifth-RHS-Ross.298" />
<route id="route_Forbes-RHS-Ross.462" edges="Forbes-RHS-Ross Forbes-Ross-Grant Grant-Forbes-Fourth" />
<vehicle type="noVar" depart="39" id="Forbes-RHS-Ross.462" route="route_Forbes-RHS-Ross.462" />
<route id="route_Forbes-RHS-Ross.299" edges="Forbes-RHS-Ross Ross-Forbes-Fourth" />
<vehicle type="noVar" depart="40" id="Forbes-RHS-Ross.299" route="route_Forbes-RHS-Ross.299" />
<route id="route_Ross-Fourth-Forbes.142" edges="Ross-Fourth-Forbes Ross-Forbes-Fifth Ross-Fifth-Sixth Sixth-Ross-RHS" />
<vehicle type="noVar" depart="40" id="Ross-Fourth-Forbes.142" route="route_Ross-Fourth-Forbes.142" />
<route id="route_WilliamPenn-Seventh-Sixth.186" edges="WilliamPenn-Seventh-Sixth WilliamPenn-Sixth-Oliver WilliamPenn-Oliver-Fifth WilliamPenn-Fifth-Forbes WilliamPenn-Forbes-Fourth" />
<vehicle type="noVar" depart="41" id="WilliamPenn-Seventh-Sixth.186" route="route_WilliamPenn-Seventh-Sixth.186" />
<route id="route_Ross-Seventh-Sixth.77" edges="Ross-Seventh-Sixth Ross-Sixth-Fifth Ross-Fifth-Forbes Ross-Forbes-Fourth" />
<vehicle type="noVar" depart="43" id="Ross-Seventh-Sixth.77" route="route_Ross-Seventh-Sixth.77" />
<route id="route_Fifth-RHS-Ross.42" edges="Fifth-RHS-Ross Fifth-Ross-Grant Fifth-Ross-Grant-2 Grant-Fifth-Forbes Grant-Forbes-Fourth" />
<vehicle type="noVar" depart="43" id="Fifth-RHS-Ross.42" route="route_Fifth-RHS-Ross.42" />
<route id="route_Grant-Seventh-Sixth.636" edges="Grant-Seventh-Sixth Grant-Sixth-Oliver Grant-Oliver-Fifth Grant-Fifth-Forbes Grant-Forbes-Fourth" />
<vehicle type="noVar" depart="45" id="Grant-Seventh-Sixth.636" route="route_Grant-Seventh-Sixth.636" />
<route id="route_Fifth-Smithfield-WilliamPenn.65" edges="Fifth-Smithfield-WilliamPenn Fifth-WilliamPenn-Grant Fifth-Grant-Ross Fifth-Grant-Ross-2 Ross-Fifth-Sixth Ross-Sixth-Seventh" />
<vehicle type="noVar" depart="46" id="Fifth-Smithfield-WilliamPenn.65" route="route_Fifth-Smithfield-WilliamPenn.65" />
<route id="route_Forbes-RHS-Ross.513" edges="Forbes-RHS-Ross Forbes-Ross-Grant Forbes-Grant-WilliamPenn WilliamPenn-Forbes-Fourth" />
<vehicle type="noVar" depart="46" id="Forbes-RHS-Ross.513" route="route_Forbes-RHS-Ross.513" />
<route id="route_Ross-Fourth-Forbes.5" edges="Ross-Fourth-Forbes Forbes-Ross-RHS" />
<vehicle type="noVar" depart="46" id="Ross-Fourth-Forbes.5" route="route_Ross-Fourth-Forbes.5" />
<route id="route_Grant-Seventh-Sixth.271" edges="Grant-Seventh-Sixth Sixth-Grant-Ross Sixth-Ross-RHS" />
<vehicle type="noVar" depart="49" id="Grant-Seventh-Sixth.271" route="route_Grant-Seventh-Sixth.271" />
<route id="route_Sixth-Smithfield-WilliamPenn.109" edges="Sixth-Smithfield-WilliamPenn Sixth-WilliamPenn-Grant Sixth-Grant-Ross Ross-Sixth-Fifth Ross-Fifth-Forbes Forbes-Ross-Grant Forbes-Grant-WilliamPenn Forbes-WilliamPenn-Smithfield" />
<vehicle type="noVar" depart="49" id="Sixth-Smithfield-WilliamPenn.109" route="route_Sixth-Smithfield-WilliamPenn.109" />
<route id="route_Sixth-RHS-Ross.180" edges="Sixth-RHS-Ross Ross-Sixth-Seventh" />
<vehicle type="noVar" depart="49" id="Sixth-RHS-Ross.180" route="route_Sixth-RHS-Ross.180" />
<route id="route_Sixth-RHS-Ross.202" edges="Sixth-RHS-Ross Sixth-Ross-Grant Grant-Sixth-Oliver Grant-Oliver-Fifth Grant-Fifth-Forbes Grant-Forbes-Fourth" />
<vehicle type="noVar" depart="49" id="Sixth-RHS-Ross.202" route="route_Sixth-RHS-Ross.202" />
<route id="route_Ross-Seventh-Sixth.563" edges="Ross-Seventh-Sixth Sixth-Ross-Grant Grant-Sixth-Seventh" />
<vehicle type="noVar" depart="50" id="Ross-Seventh-Sixth.563" route="route_Ross-Seventh-Sixth.563" />
<route id="route_Fifth-RHS-Ross.223" edges="Fifth-RHS-Ross Fifth-Ross-Grant Fifth-Ross-Grant-2 Grant-Fifth-Forbes Grant-Forbes-Fourth" />
<vehicle type="noVar" depart="50" id="Fifth-RHS-Ross.223" route="route_Fifth-RHS-Ross.223" />
<route id="route_Ross-Fourth-Forbes.298" edges="Ross-Fourth-Forbes Forbes-Ross-RHS" />
<vehicle type="noVar" depart="52" id="Ross-Fourth-Forbes.298" route="route_Ross-Fourth-Forbes.298" />
<route id="route_Forbes-RHS-Ross.254" edges="Forbes-RHS-Ross Ross-Forbes-Fifth Ross-Fifth-Sixth Ross-Sixth-Seventh" />
<vehicle type="noVar" depart="56" id="Forbes-RHS-Ross.254" route="route_Forbes-RHS-Ross.254" />
<route id="route_Grant-Seventh-Sixth.512" edges="Grant-Seventh-Sixth Sixth-Grant-Ross Sixth-Ross-RHS" />
<vehicle type="noVar" depart="57" id="Grant-Seventh-Sixth.512" route="route_Grant-Seventh-Sixth.512" />
<route id="route_Oliver-Smithfield-WilliamPenn.222" edges="Oliver-Smithfield-WilliamPenn Oliver-WilliamPenn-Grant Grant-Oliver-Fifth Grant-Fifth-Forbes Forbes-Grant-WilliamPenn Forbes-WilliamPenn-Smithfield" />
<vehicle type="noVar" depart="59" id="Oliver-Smithfield-WilliamPenn.222" route="route_Oliver-Smithfield-WilliamPenn.222" />
<route id="route_Grant-Fourth-Forbes.137" edges="Grant-Fourth-Forbes Grant-Fourth-Forbes-2 Forbes-Grant-WilliamPenn Forbes-WilliamPenn-Smithfield" />
<vehicle type="noVar" depart="59" id="Grant-Fourth-Forbes.137" route="route_Grant-Fourth-Forbes.137" />
<route id="route_Fifth-Smithfield-WilliamPenn.49" edges="Fifth-Smithfield-WilliamPenn Fifth-WilliamPenn-Grant Grant-Fifth-Oliver Grant-Oliver-Sixth Grant-Sixth-Seventh" />
<vehicle type="noVar" depart="60" id="Fifth-Smithfield-WilliamPenn.49" route="route_Fifth-Smithfield-WilliamPenn.49" />
<route id="route_Ross-Fourth-Forbes.80" edges="Ross-Fourth-Forbes Ross-Forbes-Fifth Fifth-Ross-RHS" />
<vehicle type="noVar" depart="60" id="Ross-Fourth-Forbes.80" route="route_Ross-Fourth-Forbes.80" />
<route id="route_Sixth-Smithfield-WilliamPenn.341" edges="Sixth-Smithfield-WilliamPenn Sixth-WilliamPenn-Grant Grant-Sixth-Oliver Grant-Oliver-Fifth Grant-Fifth-Forbes Grant-Forbes-Fourth" />
<vehicle type="noVar" depart="61" id="Sixth-Smithfield-WilliamPenn.341" route="route_Sixth-Smithfield-WilliamPenn.341" />
<route id="route_Sixth-RHS-Ross.98" edges="Sixth-RHS-Ross Sixth-Ross-Grant Grant-Sixth-Oliver Grant-Oliver-Fifth Fifth-Grant-Ross Fifth-Grant-Ross-2 Fifth-Ross-RHS" />
<vehicle type="noVar" depart="61" id="Sixth-RHS-Ross.98" route="route_Sixth-RHS-Ross.98" />
<route id="route_Fifth-RHS-Ross.231" edges="Fifth-RHS-Ross Fifth-Ross-Grant Fifth-Ross-Grant-2 Fifth-Grant-WilliamPenn Fifth-WilliamPenn-Smithfield" />
<vehicle type="noVar" depart="61" id="Fifth-RHS-Ross.231" route="route_Fifth-RHS-Ross.231" />
<route id="route_Ross-Seventh-Sixth.290" edges="Ross-Seventh-Sixth Ross-Sixth-Fifth Ross-Fifth-Forbes Ross-Forbes-Fourth" />
<vehicle type="noVar" depart="62" id="Ross-Seventh-Sixth.290" route="route_Ross-Seventh-Sixth.290" />
<route id="route_Grant-Fourth-Forbes.76" edges="Grant-Fourth-Forbes Grant-Fourth-Forbes-2 Grant-Forbes-Fifth Grant-Fifth-Oliver Grant-Oliver-Sixth Sixth-Grant-Ross Sixth-Ross-RHS" />
<vehicle type="noVar" depart="64" id="Grant-Fourth-Forbes.76" route="route_Grant-Fourth-Forbes.76" />
<route id="route_Sixth-RHS-Ross.113" edges="Sixth-RHS-Ross Ross-Sixth-Seventh" />
<vehicle type="noVar" depart="64" id="Sixth-RHS-Ross.113" route="route_Sixth-RHS-Ross.113" />
<route id="route_Sixth-Smithfield-WilliamPenn.351" edges="Sixth-Smithfield-WilliamPenn Sixth-WilliamPenn-Grant Sixth-Grant-Ross Sixth-Ross-RHS" />
<vehicle type="noVar" depart="65" id="Sixth-Smithfield-WilliamPenn.351" route="route_Sixth-Smithfield-WilliamPenn.351" />
<route id="route_Ross-Seventh-Sixth.342" edges="Ross-Seventh-Sixth Sixth-Ross-RHS" />
<vehicle type="noVar" depart="65" id="Ross-Seventh-Sixth.342" route="route_Ross-Seventh-Sixth.342" />
<route id="route_Sixth-RHS-Ross.238" edges="Sixth-RHS-Ross Sixth-Ross-Grant Grant-Sixth-Seventh" />
<vehicle type="noVar" depart="65" id="Sixth-RHS-Ross.238" route="route_Sixth-RHS-Ross.238" />
<route id="route_Fifth-RHS-Ross.247" edges="Fifth-RHS-Ross Fifth-Ross-Grant Fifth-Ross-Grant-2 Grant-Fifth-Oliver Grant-Oliver-Sixth Grant-Sixth-Seventh" />
<vehicle type="noVar" depart="65" id="Fifth-RHS-Ross.247" route="route_Fifth-RHS-Ross.247" />
<route id="route_Ross-Fourth-Forbes.308" edges="Ross-Fourth-Forbes Ross-Forbes-Fifth Ross-Fifth-Sixth Ross-Sixth-Seventh" />
<vehicle type="noVar" depart="66" id="Ross-Fourth-Forbes.308" route="route_Ross-Fourth-Forbes.308" />
<route id="route_Ross-Seventh-Sixth.425" edges="Ross-Seventh-Sixth Ross-Sixth-Fifth Ross-Fifth-Forbes Ross-Forbes-Fourth" />
<vehicle type="noVar" depart="67" id="Ross-Seventh-Sixth.425" route="route_Ross-Seventh-Sixth.425" />
<route id="route_Grant-Fourth-Forbes.564" edges="Grant-Fourth-Forbes Grant-Fourth-Forbes-2 Grant-Forbes-Fifth Grant-Fifth-Oliver Grant-Oliver-Sixth Grant-Sixth-Seventh" />
<vehicle type="noVar" depart="68" id="Grant-Fourth-Forbes.564" route="route_Grant-Fourth-Forbes.564" />
<route id="route_Sixth-RHS-Ross.188" edges="Sixth-RHS-Ross Sixth-Ross-Grant Grant-Sixth-Seventh" />
<vehicle type="noVar" depart="68" id="Sixth-RHS-Ross.188" route="route_Sixth-RHS-Ross.188" />
<route id="route_Grant-Fourth-Forbes.53" edges="Grant-Fourth-Forbes Grant-Fourth-Forbes-2 Grant-Forbes-Fifth Grant-Fifth-Oliver Grant-Oliver-Sixth Grant-Sixth-Seventh" />
<vehicle type="noVar" depart="69" id="Grant-Fourth-Forbes.53" route="route_Grant-Fourth-Forbes.53" />
<route id="route_Fifth-RHS-Ross.12" edges="Fifth-RHS-Ross Fifth-Ross-Grant Fifth-Ross-Grant-2 Fifth-Grant-WilliamPenn WilliamPenn-Fifth-Forbes WilliamPenn-Forbes-Fourth" />
<vehicle type="noVar" depart="70" id="Fifth-RHS-Ross.12" route="route_Fifth-RHS-Ross.12" />
<route id="route_Sixth-Smithfield-WilliamPenn.172" edges="Sixth-Smithfield-WilliamPenn Sixth-WilliamPenn-Grant Sixth-Grant-Ross Sixth-Ross-RHS" />
<vehicle type="noVar" depart="71" id="Sixth-Smithfield-WilliamPenn.172" route="route_Sixth-Smithfield-WilliamPenn.172" />
<route id="route_Oliver-Smithfield-WilliamPenn.298" edges="Oliver-Smithfield-WilliamPenn Oliver-WilliamPenn-Grant Grant-Oliver-Sixth Sixth-Grant-Ross Ross-Sixth-Fifth Ross-Fifth-Forbes Ross-Forbes-Fourth" />
<vehicle type="noVar" depart="71" id="Oliver-Smithfield-WilliamPenn.298" route="route_Oliver-Smithfield-WilliamPenn.298" />
<route id="route_Ross-Seventh-Sixth.119" edges="Ross-Seventh-Sixth Sixth-Ross-Grant Sixth-Grant-WilliamPenn Sixth-WilliamPenn-Smithfield" />
<vehicle type="noVar" depart="72" id="Ross-Seventh-Sixth.119" route="route_Ross-Seventh-Sixth.119" />
<route id="route_Oliver-Smithfield-WilliamPenn.56" edges="Oliver-Smithfield-WilliamPenn Oliver-WilliamPenn-Grant Grant-Oliver-Sixth Sixth-Grant-WilliamPenn Sixth-WilliamPenn-Smithfield" />
<vehicle type="noVar" depart="74" id="Oliver-Smithfield-WilliamPenn.56" route="route_Oliver-Smithfield-WilliamPenn.56" />
<route id="route_WilliamPenn-Seventh-Sixth.27" edges="WilliamPenn-Seventh-Sixth Sixth-WilliamPenn-Smithfield" />
<vehicle type="noVar" depart="75" id="WilliamPenn-Seventh-Sixth.27" route="route_WilliamPenn-Seventh-Sixth.27" />
<route id="route_WilliamPenn-Seventh-Sixth.80" edges="WilliamPenn-Seventh-Sixth WilliamPenn-Sixth-Oliver WilliamPenn-Oliver-Fifth WilliamPenn-Fifth-Forbes Forbes-WilliamPenn-Smithfield" />
<vehicle type="noVar" depart="76" id="WilliamPenn-Seventh-Sixth.80" route="route_WilliamPenn-Seventh-Sixth.80" />
<route id="route_Grant-Fourth-Forbes.439" edges="Grant-Fourth-Forbes Grant-Fourth-Forbes-2 Forbes-Grant-WilliamPenn WilliamPenn-Forbes-Fourth" />
<vehicle type="noVar" depart="76" id="Grant-Fourth-Forbes.439" route="route_Grant-Fourth-Forbes.439" />
<route id="route_Sixth-RHS-Ross.315" edges="Sixth-RHS-Ross Sixth-Ross-Grant Grant-Sixth-Seventh" />
<vehicle type="noVar" depart="76" id="Sixth-RHS-Ross.315" route="route_Sixth-RHS-Ross.315" />
<route id="route_Grant-Seventh-Sixth.546" edges="Grant-Seventh-Sixth Grant-Sixth-Oliver Grant-Oliver-Fifth Grant-Fifth-Forbes Grant-Forbes-Fourth" />
<vehicle type="noVar" depart="77" id="Grant-Seventh-Sixth.546" route="route_Grant-Seventh-Sixth.546" />
<route id="route_Fifth-RHS-Ross.336" edges="Fifth-RHS-Ross Fifth-Ross-Grant Fifth-Ross-Grant-2 Fifth-Grant-WilliamPenn Fifth-WilliamPenn-Smithfield" />
<vehicle type="noVar" depart="77" id="Fifth-RHS-Ross.336" route="route_Fifth-RHS-Ross.336" />
<route id="route_Forbes-RHS-Ross.251" edges="Forbes-RHS-Ross Ross-Forbes-Fourth" />
<vehicle type="noVar" depart="77" id="Forbes-RHS-Ross.251" route="route_Forbes-RHS-Ross.251" />
<route id="route_Sixth-RHS-Ross.165" edges="Sixth-RHS-Ross Sixth-Ross-Grant Grant-Sixth-Seventh" />
<vehicle type="noVar" depart="78" id="Sixth-RHS-Ross.165" route="route_Sixth-RHS-Ross.165" />
<route id="route_Sixth-RHS-Ross.387" edges="Sixth-RHS-Ross Ross-Sixth-Seventh" />
<vehicle type="noVar" depart="78" id="Sixth-RHS-Ross.387" route="route_Sixth-RHS-Ross.387" />
<route id="route_Grant-Seventh-Sixth.434" edges="Grant-Seventh-Sixth Grant-Sixth-Oliver Grant-Oliver-Fifth Fifth-Grant-WilliamPenn Fifth-WilliamPenn-Smithfield" />
<vehicle type="noVar" depart="79" id="Grant-Seventh-Sixth.434" route="route_Grant-Seventh-Sixth.434" />
<route id="route_Forbes-RHS-Ross.12" edges="Forbes-RHS-Ross Forbes-Ross-Grant Forbes-Grant-WilliamPenn WilliamPenn-Forbes-Fourth" />
<vehicle type="noVar" depart="80" id="Forbes-RHS-Ross.12" route="route_Forbes-RHS-Ross.12" />
<route id="route_Sixth-Smithfield-WilliamPenn.410" edges="Sixth-Smithfield-WilliamPenn Sixth-WilliamPenn-Grant Grant-Sixth-Seventh" />
<vehicle type="noVar" depart="81" id="Sixth-Smithfield-WilliamPenn.410" route="route_Sixth-Smithfield-WilliamPenn.410" />
<route id="route_WilliamPenn-Seventh-Sixth.220" edges="WilliamPenn-Seventh-Sixth Sixth-WilliamPenn-Grant Sixth-Grant-Ross Ross-Sixth-Seventh" />
<vehicle type="noVar" depart="83" id="WilliamPenn-Seventh-Sixth.220" route="route_WilliamPenn-Seventh-Sixth.220" />
<route id="route_Forbes-RHS-Ross.337" edges="Forbes-RHS-Ross Ross-Forbes-Fourth" />
<vehicle type="noVar" depart="83" id="Forbes-RHS-Ross.337" route="route_Forbes-RHS-Ross.337" />
<route id="route_Grant-Seventh-Sixth.653" edges="Grant-Seventh-Sixth Grant-Sixth-Oliver Grant-Oliver-Fifth Fifth-Grant-WilliamPenn Fifth-WilliamPenn-Smithfield" />
<vehicle type="noVar" depart="84" id="Grant-Seventh-Sixth.653" route="route_Grant-Seventh-Sixth.653" />
<route id="route_Sixth-Smithfield-WilliamPenn.155" edges="Sixth-Smithfield-WilliamPenn Sixth-WilliamPenn-Grant Grant-Sixth-Oliver Grant-Oliver-Fifth Grant-Fifth-Forbes Grant-Forbes-Fourth" />
<vehicle type="noVar" depart="84" id="Sixth-Smithfield-WilliamPenn.155" route="route_Sixth-Smithfield-WilliamPenn.155" />
<route id="route_Fifth-Smithfield-WilliamPenn.80" edges="Fifth-Smithfield-WilliamPenn Fifth-WilliamPenn-Grant Grant-Fifth-Oliver Grant-Oliver-Sixth Grant-Sixth-Seventh" />
<vehicle type="noVar" depart="85" id="Fifth-Smithfield-WilliamPenn.80" route="route_Fifth-Smithfield-WilliamPenn.80" />
<route id="route_Fifth-RHS-Ross.111" edges="Fifth-RHS-Ross Fifth-Ross-Grant Fifth-Ross-Grant-2 Fifth-Grant-WilliamPenn Fifth-WilliamPenn-Smithfield" />
<vehicle type="noVar" depart="85" id="Fifth-RHS-Ross.111" route="route_Fifth-RHS-Ross.111" />
<route id="route_Ross-Fourth-Forbes.565" edges="Ross-Fourth-Forbes Forbes-Ross-RHS" />
<vehicle type="noVar" depart="85" id="Ross-Fourth-Forbes.565" route="route_Ross-Fourth-Forbes.565" />
<route id="route_WilliamPenn-Seventh-Sixth.333" edges="WilliamPenn-Seventh-Sixth WilliamPenn-Sixth-Oliver Oliver-WilliamPenn-Smithfield" />
<vehicle type="noVar" depart="86" id="WilliamPenn-Seventh-Sixth.333" route="route_WilliamPenn-Seventh-Sixth.333" />