<?xml version="1.0" encoding="UTF-8"?>
<routes xmlns:xsi="http://www.w3.org/2001/XMLSchema-instance" xsi:noNamespaceSchemaLocation="http://sumo.dlr.de/xsd/routes_file.xsd">

<vType id="noVar" speedFactor="1.0" speedDev="0.0"/>
<route id="route_Oliver-Smithfield-WilliamPenn.21" edges="Oliver-Smithfield-WilliamPenn WilliamPenn-Oliver-Fifth Fifth-WilliamPenn-Grant Fifth-Grant-Ross Fifth-Grant-Ross-2 Ross-Fifth-Forbes Ross-Forbes-Fourth" />
<vehicle type="noVar" depart="1" id="Oliver-Smithfield-WilliamPenn.21" route="route_Oliver-Smithfield-WilliamPenn.21" />
<route id="route_Grant-Seventh-Sixth.229" edges="Grant-Seventh-Sixth Sixth-Grant-Ross Ross-Sixth-Fifth Ross-Fifth-Forbes Forbes-Ross-Grant Grant-Forbes-Fourth" />
<vehicle type="noVar" depart="2" id="Grant-Seventh-Sixth.229" route="route_Grant-Seventh-Sixth.229" />
<route id="route_Fifth-Smithfield-WilliamPenn.108" edges="Fifth-Smithfield-WilliamPenn Fifth-WilliamPenn-Grant Fifth-Grant-Ross Fifth-Grant-Ross-2 Fifth-Ross-RHS" />
<vehicle type="noVar" depart="4" id="Fifth-Smithfield-WilliamPenn.108" route="route_Fifth-Smithfield-WilliamPenn.108" />
<route id="route_Grant-Fourth-Forbes.71" edges="Grant-Fourth-Forbes Grant-Fourth-Forbes-2 Forbes-Grant-WilliamPenn WilliamPenn-Forbes-Fourth" />
<vehicle type="noVar" depart="6" id="Grant-Fourth-Forbes.71" route="route_Grant-Fourth-Forbes.71" />
<route id="route_Grant-Seventh-Sixth.117" edges="Grant-Seventh-Sixth Sixth-Grant-Ross Ross-Sixth-Fifth Ross-Fifth-Forbes Forbes-Ross-Grant Grant-Forbes-Fourth" />
<vehicle type="noVar" depart="7" id="Grant-Seventh-Sixth.117" route="route_Grant-Seventh-Sixth.117" />
<route id="route_Sixth-Smithfield-WilliamPenn.299" edges="Sixth-Smithfield-WilliamPenn Sixth-WilliamPenn-Grant Sixth-Grant-Ross Sixth-Ross-RHS" />
<vehicle type="noVar" depart="7" id="Sixth-Smithfield-WilliamPenn.299" route="route_Sixth-Smithfield-WilliamPenn.299" />
<route id="route_Grant-Seventh-Sixth.179" edges="Grant-Seventh-Sixth Sixth-Grant-Ross Sixth-Ross-RHS" />
<vehicle type="noVar" depart="9" id="Grant-Seventh-Sixth.179" route="route_Grant-Seventh-Sixth.179" />
<route id="route_WilliamPenn-Seventh-Sixth.81" edges="WilliamPenn-Seventh-Sixth Sixth-WilliamPenn-Grant Grant-Sixth-Seventh" />
<vehicle type="noVar" depart="9" id="WilliamPenn-Seventh-Sixth.81" route="route_WilliamPenn-Seventh-Sixth.81" />
<route id="route_Forbes-RHS-Ross.247" edges="Forbes-RHS-Ross Ross-Forbes-Fourth" />
<vehicle type="noVar" depart="9" id="Forbes-RHS-Ross.247" route="route_Forbes-RHS-Ross.247" />
<route id="route_Sixth-Smithfield-WilliamPenn.212" edges="Sixth-Smithfield-WilliamPenn WilliamPenn-Sixth-Oliver Oliver-WilliamPenn-Smithfield" />
<vehicle type="noVar" depart="14" id="Sixth-Smithfield-WilliamPenn.212" route="route_Sixth-Smithfield-WilliamPenn.212" />
<route id="route_Forbes-RHS-Ross.301" edges="Forbes-RHS-Ross Forbes-Ross-Grant Forbes-Grant-WilliamPenn WilliamPenn-Forbes-Fourth" />
<vehicle type="noVar" depart="14" id="Forbes-RHS-Ross.301" route="route_Forbes-RHS-Ross.301" />
<route id="route_Ross-Fourth-Forbes.235" edges="Ross-Fourth-Forbes Ross-Forbes-Fifth Ross-Fifth-Sixth Ross-Sixth-Seventh" />
<vehicle type="noVar" depart="14" id="Ross-Fourth-Forbes.235" route="route_Ross-Fourth-Forbes.235" />
<route id="route_Fifth-RHS-Ross.228" edges="Fifth-RHS-Ross Fifth-Ross-Grant Fifth-Ross-Grant-2 Fifth-Grant-WilliamPenn Fifth-WilliamPenn-Smithfield" />
<vehicle type="noVar" depart="15" id="Fifth-RHS-Ross.228" route="route_Fifth-RHS-Ross.228" />
<route id="route_Forbes-RHS-Ross.111" edges="Forbes-RHS-Ross Forbes-Ross-Grant Forbes-Grant-WilliamPenn WilliamPenn-Forbes-Fourth" />
<vehicle type="noVar" depart="17" id="Forbes-RHS-Ross.111" route="route_Forbes-RHS-Ross.111" />
<route id="route_Grant-Fourth-Forbes.65" edges="Grant-Fourth-Forbes Grant-Fourth-Forbes-2 Forbes-Grant-Ross Ross-Forbes-Fifth Ross-Fifth-Sixth Sixth-Ross-RHS" />
<vehicle type="noVar" depart="17" id="Grant-Fourth-Forbes.65" route="route_Grant-Fourth-Forbes.65" />
<route id="route_Ross-Fourth-Forbes.367" edges="Ross-Fourth-Forbes Forbes-Ross-Grant Forbes-Grant-WilliamPenn WilliamPenn-Forbes-Fourth" />
<vehicle type="noVar" depart="18" id="Ross-Fourth-Forbes.367" route="route_Ross-Fourth-Forbes.367" />
<route id="route_Grant-Fourth-Forbes.422" edges="Grant-Fourth-Forbes Grant-Fourth-Forbes-2 Forbes-Grant-Ross Ross-Forbes-Fifth Ross-Fifth-Sixth Ross-Sixth-Seventh" />
<vehicle type="noVar" depart="20" id="Grant-Fourth-Forbes.422" route="route_Grant-Fourth-Forbes.422" />
<route id="route_Sixth-RHS-Ross.345" edges="Sixth-RHS-Ross Sixth-Ross-Grant Sixth-Grant-WilliamPenn Sixth-WilliamPenn-Smithfield" />
<vehicle type="noVar" depart="20" id="Sixth-RHS-Ross.345" route="route_Sixth-RHS-Ross.345" />
<route id="route_Forbes-RHS-Ross.258" edges="Forbes-RHS-Ross Ross-Forbes-Fourth" />
<vehicle type="noVar" depart="20" id="Forbes-RHS-Ross.258" route="route_Forbes-RHS-Ross.258" />
<route id="route_WilliamPenn-Seventh-Sixth.168" edges="WilliamPenn-Seventh-Sixth WilliamPenn-Sixth-Oliver Oliver-WilliamPenn-Smithfield" />
<vehicle type="noVar" depart="21" id="WilliamPenn-Seventh-Sixth.168" route="route_WilliamPenn-Seventh-Sixth.168" />
<route id="route_Fifth-Smithfield-WilliamPenn.107" edges="Fifth-Smithfield-WilliamPenn Fifth-WilliamPenn-Grant Fifth-Grant-Ross Fifth-Grant-Ross-2 Ross-Fifth-Forbes Ross-Forbes-Fourth" />
<vehicle type="noVar" depart="22" id="Fifth-Smithfield-WilliamPenn.107" route="route_Fifth-Smithfield-WilliamPenn.107" />
<route id="route_Fifth-Smithfield-WilliamPenn.114" edges="Fifth-Smithfield-WilliamPenn Fifth-WilliamPenn-Grant Fifth-Grant-Ross Fifth-Grant-Ross-2 Ross-Fifth-Forbes Ross-Forbes-Fourth" />
<vehicle type="noVar" depart="26" id="Fifth-Smithfield-WilliamPenn.114" route="route_Fifth-Smithfield-WilliamPenn.114" />
<route id="route_Fifth-RHS-Ross.363" edges="Fifth-RHS-Ross Fifth-Ross-Grant Fifth-Ross-Grant-2 Fifth-Grant-WilliamPenn Fifth-WilliamPenn-Smithfield" />
<vehicle type="noVar" depart="26" id="Fifth-RHS-Ross.363" route="route_Fifth-RHS-Ross.363" />
<route id="route_Oliver-Smithfield-WilliamPenn.1" edges="Oliver-Smithfield-WilliamPenn Oliver-WilliamPenn-Grant Grant-Oliver-Sixth Grant-Sixth-Seventh" />
<vehicle type="noVar" depart="27" id="Oliver-Smithfield-WilliamPenn.1" route="route_Oliver-Smithfield-WilliamPenn.1" />
<route id="route_Ross-Fourth-Forbes.186" edges="Ross-Fourth-Forbes Ross-Forbes-Fifth Ross-Fifth-Sixth Ross-Sixth-Seventh" />
<vehicle type="noVar" depart="28" id="Ross-Fourth-Forbes.186" route="route_Ross-Fourth-Forbes.186" />
<route id="route_Grant-Fourth-Forbes.613" edges="Grant-Fourth-Forbes Grant-Fourth-Forbes-2 Forbes-Grant-Ross Ross-Forbes-Fifth Ross-Fifth-Sixth Sixth-Ross-RHS" />
<vehicle type="noVar" depart="29" id="Grant-Fourth-Forbes.613" route="route_Grant-Fourth-Forbes.613" />
<route id="route_Oliver-Smithfield-WilliamPenn.95" edges="Oliver-Smithfield-WilliamPenn WilliamPenn-Oliver-Fifth Fifth-WilliamPenn-Smithfield" />
<vehicle type="noVar" depart="30" id="Oliver-Smithfield-WilliamPenn.95" route="route_Oliver-Smithfield-WilliamPenn.95" />
<route id="route_Fifth-RHS-Ross.269" edges="Fifth-RHS-Ross Fifth-Ross-Grant Fifth-Ross-Grant-2 Fifth-Grant-WilliamPenn Fifth-WilliamPenn-Smithfield" />
<vehicle type="noVar" depart="30" id="Fifth-RHS-Ross.269" route="route_Fifth-RHS-Ross.269" />
<route id="route_Grant-Fourth-Forbes.788" edges="Grant-Fourth-Forbes Grant-Fourth-Forbes-2 Grant-Forbes-Fifth Grant-Fifth-Oliver Grant-Oliver-Sixth Grant-Sixth-Seventh" />
<vehicle type="noVar" depart="32" id="Grant-Fourth-Forbes.788" route="route_Grant-Fourth-Forbes.788" />
<route id="route_Forbes-RHS-Ross.376" edges="Forbes-RHS-Ross Forbes-Ross-Grant Forbes-Grant-WilliamPenn Forbes-WilliamPenn-Smithfield" />
<vehicle type="noVar" depart="32" id="Forbes-RHS-Ross.376" route="route_Forbes-RHS-Ross.376" />
<route id="route_Fifth-RHS-Ross.233" edges="Fifth-RHS-Ross Ross-Fifth-Forbes Forbes-Ross-Grant Forbes-Grant-WilliamPenn WilliamPenn-Forbes-Fourth" />
<vehicle type="noVar" depart="33" id="Fifth-RHS-Ross.233" route="route_Fifth-RHS-Ross.233" />
<route id="route_Forbes-RHS-Ross.384" edges="Forbes-RHS-Ross Forbes-Ross-Grant Forbes-Grant-WilliamPenn Forbes-WilliamPenn-Smithfield" />
<vehicle type="noVar" depart="35" id="Forbes-RHS-Ross.384" route="route_Forbes-RHS-Ross.384" />
<route id="route_Grant-Seventh-Sixth.69" edges="Grant-Seventh-Sixth Sixth-Grant-Ross Ross-Sixth-Fifth Fifth-Ross-RHS" />
<vehicle type="noVar" depart="35" id="Grant-Seventh-Sixth.69" route="route_Grant-Seventh-Sixth.69" />
<route id="route_Fifth-RHS-Ross.267" edges="Fifth-RHS-Ross Fifth-Ross-Grant Fifth-Ross-Grant-2 Fifth-Grant-WilliamPenn Fifth-WilliamPenn-Smithfield" />
<vehicle type="noVar" depart="36" id="Fifth-RHS-Ross.267" route="route_Fifth-RHS-Ross.267" />
<route id="route_Sixth-RHS-Ross.235" edges="Sixth-RHS-Ross Ross-Sixth-Seventh" />
<vehicle type="noVar" depart="36" id="Sixth-RHS-Ross.235" route="route_Sixth-RHS-Ross.235" />
<route id="route_Ross-Fourth-Forbes.161" edges="Ross-Fourth-Forbes Forbes-Ross-Grant Grant-Forbes-Fourth" />
<vehicle type="noVar" depart="37" id="Ross-Fourth-Forbes.161" route="route_Ross-Fourth-Forbes.161" />
<route id="route_Ross-Seventh-Sixth.334" edges="Ross-Seventh-Sixth Sixth-Ross-Grant Grant-Sixth-Seventh" />
<vehicle type="noVar" depart="38" id="Ross-Seventh-Sixth.334" route="route_Ross-Seventh-Sixth.334" />
<route id="route_Ross-Fourth-Forbes.230" edges="Ross-Fourth-Forbes Forbes-Ross-Grant Forbes-Grant-WilliamPenn WilliamPenn-Forbes-Fourth" />
<vehicle type="noVar" depart="39" id="Ross-Fourth-Forbes.230" route="route_Ross-Fourth-Forbes.230" />
<route id="route_WilliamPenn-Seventh-Sixth.29" edges="WilliamPenn-Seventh-Sixth WilliamPenn-Sixth-Oliver WilliamPenn-Oliver-Fifth WilliamPenn-Fifth-Forbes WilliamPenn-Forbes-Fourth" />
<vehicle type="noVar" depart="40" id="WilliamPenn-Seventh-Sixth.29" route="route_WilliamPenn-Seventh-Sixth.29" />
<route id="route_Sixth-Smithfield-WilliamPenn.185" edges="Sixth-Smithfield-WilliamPenn Sixth-WilliamPenn-Grant Sixth-Grant-Ross Sixth-Ross-RHS" />
<vehicle type="noVar" depart="40" id="Sixth-Smithfield-WilliamPenn.185" route="route_Sixth-Smithfield-WilliamPenn.185" />
<route id="route_Grant-Fourth-Forbes.501" edges="Grant-Fourth-Forbes Grant-Fourth-Forbes-2 Forbes-Grant-WilliamPenn WilliamPenn-Forbes-Fourth" />
<vehicle type="noVar" depart="42" id="Grant-Fourth-Forbes.501" route="route_Grant-Fourth-Forbes.501" />
<route id="route_Fifth-Smithfield-WilliamPenn.91" edges="Fifth-Smithfield-WilliamPenn Fifth-WilliamPenn-Grant Grant-Fifth-Forbes Grant-Forbes-Fourth" />
<vehicle type="noVar" depart="43" id="Fifth-Smithfield-WilliamPenn.91" route="route_Fifth-Smithfield-WilliamPenn.91" />
<route id="route_Ross-Seventh-Sixth.381" edges="Ross-Seventh-Sixth Ross-Sixth-Fifth Ross-Fifth-Forbes Ross-Forbes-Fourth" />
<vehicle type="noVar" depart="43" id="Ross-Seventh-Sixth.381" route="route_Ross-Seventh-Sixth.381" />
<route id="route_Sixth-Smithfield-WilliamPenn.332" edges="Sixth-Smithfield-WilliamPenn WilliamPenn-Sixth-Oliver WilliamPenn-Oliver-Fifth WilliamPenn-Fifth-Forbes WilliamPenn-Forbes-Fourth" />
<vehicle type="noVar" depart="44" id="Sixth-Smithfield-WilliamPenn.332" route="route_Sixth-Smithfield-WilliamPenn.332" />
<route id="route_Grant-Fourth-Forbes.552" edges="Grant-Fourth-Forbes Grant-Fourth-Forbes-2 Grant-Forbes-Fifth Grant-Fifth-Oliver Grant-Oliver-Sixth Grant-Sixth-Seventh" />
<vehicle type="noVar" depart="44" id="Grant-Fourth-Forbes.552" route="route_Grant-Fourth-Forbes.552" />
<route id="route_Ross-Fourth-Forbes.42" edges="Ross-Fourth-Forbes Ross-Forbes-Fifth Ross-Fifth-Sixth Sixth-Ross-RHS" />
<vehicle type="noVar" depart="44" id="Ross-Fourth-Forbes.42" route="route_Ross-Fourth-Forbes.42" />
<route id="route_Ross-Fourth-Forbes.8" edges="Ross-Fourth-Forbes Forbes-Ross-Grant Forbes-Grant-WilliamPenn Forbes-WilliamPenn-Smithfield" />
<vehicle type="noVar" depart="47" id="Ross-Fourth-Forbes.8" route="route_Ross-Fourth-Forbes.8" />
<route id="route_Grant-Fourth-Forbes.594" edges="Grant-Fourth-Forbes Grant-Fourth-Forbes-2 Forbes-Grant-WilliamPenn Forbes-WilliamPenn-Smithfield" />
<vehicle type="noVar" depart="47" id="Grant-Fourth-Forbes.594" route="route_Grant-Fourth-Forbes.594" />
<route id="route_Fifth-Smithfield-WilliamPenn.23" edges="Fifth-Smithfield-WilliamPenn Fifth-WilliamPenn-Grant Fifth-Grant-Ross Fifth-Grant-Ross-2 Fifth-Ross-RHS" />
<vehicle type="noVar" depart="47" id="Fifth-Smithfield-WilliamPenn.23" route="route_Fifth-Smithfield-WilliamPenn.23" />
<route id="route_Grant-Fourth-Forbes.563" edges="Grant-Fourth-Forbes Grant-Fourth-Forbes-2 Grant-Forbes-Fifth Grant-Fifth-Oliver Grant-Oliver-Sixth Grant-Sixth-Seventh" />
<vehicle type="noVar" depart="49" id="Grant-Fourth-Forbes.563" route="route_Grant-Fourth-Forbes.563" />
<route id="route_Oliver-Smithfield-WilliamPenn.143" edges="Oliver-Smithfield-WilliamPenn WilliamPenn-Oliver-Fifth WilliamPenn-Fifth-Forbes Forbes-WilliamPenn-Smithfield" />
<vehicle type="noVar" depart="52" id="Oliver-Smithfield-WilliamPenn.143" route="route_Oliver-Smithfield-WilliamPenn.143" />
<route id="route_Sixth-RHS-Ross.143" edges="Sixth-RHS-Ross Sixth-Ross-Grant Sixth-Grant-WilliamPenn Sixth-WilliamPenn-Smithfield" />
<vehicle type="noVar" depart="52" id="Sixth-RHS-Ross.143" route="route_Sixth-RHS-Ross.143" />
<route id="route_Forbes-RHS-Ross.450" edges="Forbes-RHS-Ross Forbes-Ross-Grant Grant-Forbes-Fourth" />
<vehicle type="noVar" depart="52" id="Forbes-RHS-Ross.450" route="route_Forbes-RHS-Ross.450" />
<route id="route_Grant-Fourth-Forbes.437" edges="Grant-Fourth-Forbes Grant-Fourth-Forbes-2 Grant-Forbes-Fifth Grant-Fifth-Oliver Grant-Oliver-Sixth Grant-Sixth-Seventh" />
<vehicle type="noVar" depart="53" id="Grant-Fourth-Forbes.437" route="route_Grant-Fourth-Forbes.437" />
<route id="route_Sixth-RHS-Ross.42" edges="Sixth-RHS-Ross Sixth-Ross-Grant Sixth-Grant-WilliamPenn Sixth-WilliamPenn-Smithfield" />
<vehicle type="noVar" depart="55" id="Sixth-RHS-Ross.42" route="route_Sixth-RHS-Ross.42" />
<route id="route_Fifth-RHS-Ross.225" edges="Fifth-RHS-Ross Fifth-Ross-Grant Fifth-Ross-Grant-2 Fifth-Grant-WilliamPenn Fifth-WilliamPenn-Smithfield" />
<vehicle type="noVar" depart="55" id="Fifth-RHS-Ross.225" route="route_Fifth-RHS-Ross.225" />
<route id="route_Forbes-RHS-Ross.299" edges="Forbes-RHS-Ross Ross-Forbes-Fourth" />
<vehicle type="noVar" depart="55" id="Forbes-RHS-Ross.299" route="route_Forbes-RHS-Ross.299" />
<route id="route_Ross-Fourth-Forbes.2" edges="Ross-Fourth-Forbes Ross-Forbes-Fifth Ross-Fifth-Sixth Ross-Sixth-Seventh" />
<vehicle type="noVar" depart="57" id="Ross-Fourth-Forbes.2" route="route_Ross-Fourth-Forbes.2" />
<route id="route_Sixth-RHS-Ross.355" edges="Sixth-RHS-Ross Sixth-Ross-Grant Grant-Sixth-Seventh" />
<vehicle type="noVar" depart="58" id="Sixth-RHS-Ross.355" route="route_Sixth-RHS-Ross.355" />
<route id="route_Sixth-Smithfield-WilliamPenn.95" edges="Sixth-Smithfield-WilliamPenn Sixth-WilliamPenn-Grant Sixth-Grant-Ross Ross-Sixth-Fifth Ross-Fifth-Forbes Ross-Forbes-Fourth" />
<vehicle type="noVar" depart="58" id="Sixth-Smithfield-WilliamPenn.95" route="route_Sixth-Smithfield-WilliamPenn.95" />
<route id="route_Ross-Fourth-Forbes.237" edges="Ross-Fourth-Forbes Forbes-Ross-Grant Forbes-Grant-WilliamPenn Forbes-WilliamPenn-Smithfield" />
<vehicle type="noVar" depart="60" id="Ross-Fourth-Forbes.237" route="route_Ross-Fourth-Forbes.237" />
<route id="route_WilliamPenn-Seventh-Sixth.110" edges="WilliamPenn-Seventh-Sixth Sixth-WilliamPenn-Grant Sixth-Grant-Ross Ross-Sixth-Seventh" />
<vehicle type="noVar" depart="60" id="WilliamPenn-Seventh-Sixth.110" route="route_WilliamPenn-Seventh-Sixth.110" />
<route id="route_Grant-Fourth-Forbes.715" edges="Grant-Fourth-Forbes Grant-Fourth-Forbes-2 Grant-Forbes-Fifth Grant-Fifth-Oliver Grant-Oliver-Sixth Grant-Sixth-Seventh" />
<vehicle type="noVar" depart="60" id="Grant-Fourth-Forbes.715" route="route_Grant-Fourth-Forbes.715" />
<route id="route_Grant-Seventh-Sixth.230" edges="Grant-Seventh-Sixth Grant-Sixth-Oliver Grant-Oliver-Fifth Grant-Fifth-Forbes Grant-Forbes-Fourth" />
<vehicle type="noVar" depart="61" id="Grant-Seventh-Sixth.230" route="route_Grant-Seventh-Sixth.230" />
<route id="route_Forbes-RHS-Ross.91" edges="Forbes-RHS-Ross Ross-Forbes-Fourth" />
<vehicle type="noVar" depart="61" id="Forbes-RHS-Ross.91" route="route_Forbes-RHS-Ross.91" />
<route id="route_Ross-Fourth-Forbes.209" edges="Ross-Fourth-Forbes Ross-Forbes-Fifth Fifth-Ross-RHS" />
<vehicle type="noVar" depart="63" id="Ross-Fourth-Forbes.209" route="route_Ross-Fourth-Forbes.209" />
<route id="route_Sixth-Smithfield-WilliamPenn.336" edges="Sixth-Smithfield-WilliamPenn Sixth-WilliamPenn-Grant Sixth-Grant-Ross Ross-Sixth-Fifth Ross-Fifth-Forbes Ross-Forbes-Fourth" />
<vehicle type="noVar" depart="65" id="Sixth-Smithfield-WilliamPenn.336" route="route_Sixth-Smithfield-WilliamPenn.336" />
<route id="route_Grant-Seventh-Sixth.310" edges="Grant-Seventh-Sixth Sixth-Grant-Ross Ross-Sixth-Fifth Ross-Fifth-Forbes Forbes-Ross-RHS" />
<vehicle type="noVar" depart="67" id="Grant-Seventh-Sixth.310" route="route_Grant-Seventh-Sixth.310" />
<route id="route_Fifth-RHS-Ross.200" edges="Fifth-RHS-Ross Fifth-Ross-Grant Fifth-Ross-Grant-2 Fifth-Grant-WilliamPenn Fifth-WilliamPenn-Smithfield" />
<vehicle type="noVar" depart="67" id="Fifth-RHS-Ross.200" route="route_Fifth-RHS-Ross.200" />
<route id="route_Grant-Seventh-Sixth.469" edges="Grant-Seventh-Sixth Grant-Sixth-Oliver Grant-Oliver-Fifth Grant-Fifth-Forbes Grant-Forbes-Fourth" />
<vehicle type="noVar" depart="68" id="Grant-Seventh-Sixth.469" route="route_Grant-Seventh-Sixth.469" />
<route id="route_Ross-Fourth-Forbes.258" edges="Ross-Fourth-Forbes Ross-Forbes-Fifth Ross-Fifth-Sixth Ross-Sixth-Seventh" />
<vehicle type="noVar" depart="68" id="Ross-Fourth-Forbes.258" route="route_Ross-Fourth-Forbes.258" />
<route id="route_Fifth-RHS-Ross.131" edges="Fifth-RHS-Ross Fifth-Ross-Grant Fifth-Ross-Grant-2 Fifth-Grant-WilliamPenn Fifth-WilliamPenn-Smithfield" />
<vehicle type="noVar" depart="70" id="Fifth-RHS-Ross.131" route="route_Fifth-RHS-Ross.131" />
<route id="route_Grant-Seventh-Sixth.56" edges="Grant-Seventh-Sixth Sixth-Grant-Ross Ross-Sixth-Fifth Ross-Fifth-Forbes Ross-Forbes-Fourth" />
<vehicle type="noVar" depart="71" id="Grant-Seventh-Sixth.56" route="route_Grant-Seventh-Sixth.56" />
<route id="route_WilliamPenn-Seventh-Sixth.200" edges="WilliamPenn-Seventh-Sixth WilliamPenn-Sixth-Oliver WilliamPenn-Oliver-Fifth Fifth-WilliamPenn-Smithfield" />
<vehicle type="noVar" depart="71" id="WilliamPenn-Seventh-Sixth.200" route="route_WilliamPenn-Seventh-Sixth.200" />
<route id="route_Forbes-RHS-Ross.398" edges="Forbes-RHS-Ross Forbes-Ross-Grant Grant-Forbes-Fourth" />
<vehicle type="noVar" depart="72" id="Forbes-RHS-Ross.398" route="route_Forbes-RHS-Ross.398" />
<route id="route_Fifth-RHS-Ross.385" edges="Fifth-RHS-Ross Fifth-Ross-Grant Fifth-Ross-Grant-2 Fifth-Grant-WilliamPenn Fifth-WilliamPenn-Smithfield" />
<vehicle type="noVar" depart="73" id="Fifth-RHS-Ross.385" route="route_Fifth-RHS-Ross.385" />
<route id="route_Forbes-Smithfield-WilliamPenn.44" edges="Forbes-Smithfield-WilliamPenn WilliamPenn-Forbes-Fourth" />
<vehicle type="noVar" depart="73" id="Forbes-Smithfield-WilliamPenn.44" route="route_Forbes-Smithfield-WilliamPenn.44" />
<route id="route_Ross-Fourth-Forbes.136" edges="Ross-Fourth-Forbes Forbes-Ross-RHS" />
<vehicle type="noVar" depart="73" id="Ross-Fourth-Forbes.136" route="route_Ross-Fourth-Forbes.136" />
<route id="route_Grant-Fourth-Forbes.161" edges="Grant-Fourth-Forbes Grant-Fourth-Forbes-2 Forbes-Grant-WilliamPenn WilliamPenn-Forbes-Fourth" />
<vehicle type="noVar" depart="74" id="Grant-Fourth-Forbes.161" route="route_Grant-Fourth-Forbes.161" />
<route id="route_Grant-Fourth-Forbes.305" edges="Grant-Fourth-Forbes Grant-Fourth-Forbes-2 Forbes-Grant-Ross Ross-Forbes-Fourth" />
<vehicle type="noVar" depart="77" id="Grant-Fourth-Forbes.305" route="route_Grant-Fourth-Forbes.305" />
<route id="route_Ross-Seventh-Sixth.231" edges="Ross-Seventh-Sixth Sixth-Ross-Grant Sixth-Grant-WilliamPenn Sixth-WilliamPenn-Smithfield" />
<vehicle type="noVar" depart="77" id="Ross-Seventh-Sixth.231" route="route_Ross-Seventh-Sixth.231" />
<route id="route_Sixth-RHS-Ross.29" edges="Sixth-RHS-Ross Ross-Sixth-Seventh" />
<vehicle type="noVar" depart="77" id="Sixth-RHS-Ross.29" route="route_Sixth-RHS-Ross.29" />
<route id="route_Fifth-RHS-Ross.38" edges="Fifth-RHS-Ross Fifth-Ross-Grant Fifth-Ross-Grant-2 Fifth-Grant-WilliamPenn Fifth-WilliamPenn-Smithfield" />
<vehicle type="noVar" depart="77" id="Fifth-RHS-Ross.38" route="route_Fifth-RHS-Ross.38" />
<route id="route_Grant-Seventh-Sixth.461" edges="Grant-Seventh-Sixth Sixth-Grant-Ross Ross-Sixth-Fifth Fifth-Ross-RHS" />
<vehicle type="noVar" depart="79" id="Grant-Seventh-Sixth.461" route="route_Grant-Seventh-Sixth.461" />
<route id="route_Sixth-RHS-Ross.341" edges="Sixth-RHS-Ross Sixth-Ross-Grant Grant-Sixth-Seventh" />
<vehicle type="noVar" depart="80" id="Sixth-RHS-Ross.341" route="route_Sixth-RHS-Ross.341" />
<route id="route_Grant-Seventh-Sixth.14" edges="Grant-Seventh-Sixth Sixth-Grant-Ross Sixth-Ross-RHS" />
<vehicle type="noVar" depart="80" id="Grant-Seventh-Sixth.14" route="route_Grant-Seventh-Sixth.14" />
<route id="route_Sixth-Smithfield-WilliamPenn.40" edges="Sixth-Smithfield-WilliamPenn Sixth-WilliamPenn-Grant Sixth-Grant-Ross Sixth-Ross-RHS" />
<vehicle type="noVar" depart="81" id="Sixth-Smithfield-WilliamPenn.40" route="route_Sixth-Smithfield-WilliamPenn.40" />
<route id="route_Ross-Seventh-Sixth.110" edges="Ross-Seventh-Sixth Sixth-Ross-RHS" />
<vehicle type="noVar" depart="81" id="Ross-Seventh-Sixth.110" route="route_Ross-Seventh-Sixth.110" />
<route id="route_Ross-Fourth-Forbes.272" edges="Ross-Fourth-Forbes Ross-Forbes-Fifth Ross-Fifth-Sixth Ross-Sixth-Seventh" />
<vehicle type="noVar" depart="81" id="Ross-Fourth-Forbes.272" route="route_Ross-Fourth-Forbes.272" />
<route id="route_Fifth-Smithfield-WilliamPenn.15" edges="Fifth-Smithfield-WilliamPenn Fifth-WilliamPenn-Grant Fifth-Grant-Ross Fifth-Grant-Ross-2 Ross-Fifth-Forbes Ross-Forbes-Fourth" />
<vehicle type="noVar" depart="82" id="Fifth-Smithfield-WilliamPenn.15" route="route_Fifth-Smithfield-WilliamPenn.15" />
<route id="route_Sixth-RHS-Ross.183" edges="Sixth-RHS-Ross Sixth-Ross-Grant Sixth-Grant-WilliamPenn Sixth-WilliamPenn-Smithfield" />
<vehicle type="noVar" depart="83" id="Sixth-RHS-Ross.183" route="route_Sixth-RHS-Ross.183" />
<route id="route_Sixth-Smithfield-WilliamPenn.270" edges="Sixth-Smithfield-WilliamPenn Sixth-WilliamPenn-Grant Sixth-Grant-Ross Ross-Sixth-Fifth Ross-Fifth-Forbes Forbes-Ross-Grant Grant-Forbes-Fourth" />
<vehicle type="noVar" depart="84" id="Sixth-Smithfield-WilliamPenn.270" route="route_Sixth-Smithfield-WilliamPenn.270" />
<route id="route_Grant-Fourth-Forbes.444" edges="Grant-Fourth-Forbes Grant-Fourth-Forbes-2 Forbes-Grant-WilliamPenn Forbes-WilliamPenn-Smithfield" />
<vehicle type="noVar" depart="84" id="Grant-Fourth-Forbes.444" route="route_Grant-Fourth-Forbes.444" />
<route id="route_Ross-Seventh-Sixth.22" edges="Ross-Seventh-Sixth Ross-Sixth-Fifth Ross-Fifth-Forbes Forbes-Ross-Grant Grant-Forbes-Fourth" />
<vehicle type="noVar" depart="84" id="Ross-Seventh-Sixth.22" route="route_Ross-Seventh-Sixth.22" />
<route id="route_Fifth-Smithfield-WilliamPenn.117" edges="Fifth-Smithfield-WilliamPenn Fifth-WilliamPenn-Grant Fifth-Grant-Ross Fifth-Grant-Ross-2 Fifth-Ross-RHS" />
<vehicle type="noVar" depart="85" id="Fifth-Smithfield-WilliamPenn.117" route="route_Fifth-Smithfield-WilliamPenn.117" />
<route id="route_Ross-Seventh-Sixth.2" edges="Ross-Seventh-Sixth Ross-Sixth-Fifth Ross-Fifth-Forbes Ross-Forbes-Fourth" />
<vehicle type="noVar" depart="85" id="Ross-Seventh-Sixth.2" route="route_Ross-Seventh-Sixth.2" />
<route id="route_Sixth-Smithfield-WilliamPenn.313" edges="Sixth-Smithfield-WilliamPenn Sixth-WilliamPenn-Grant Grant-Sixth-Seventh" />
<vehicle type="noVar" depart="87" id="Sixth-Smithfield-WilliamPenn.313" route="route_Sixth-Smithfield-WilliamPenn.313" />
<route id="route_WilliamPenn-Seventh-Sixth.232" edges="WilliamPenn-Seventh-Sixth Sixth-WilliamPenn-Smithfield" />
<vehicle type="noVar" depart="87" id="WilliamPenn-Seventh-Sixth.232" route="route_WilliamPenn-Seventh-Sixth.232" />
<route id="route_Oliver-Smithfield-WilliamPenn.14" edges="Oliver-Smithfield-WilliamPenn WilliamPenn-Oliver-Fifth WilliamPenn-Fifth-Forbes WilliamPenn-Forbes-Fourth" />
<vehicle type="noVar" depart="87" id="Oliver-Smithfield-WilliamPenn.14" route="route_Oliver-Smithfield-WilliamPenn.14" />
<route id="route_Ross-Fourth-Forbes.427" edges="Ross-Fourth-Forbes Forbes-Ross-RHS" />
<vehicle type="noVar" depart="87" id="Ross-Fourth-Forbes.427" route="route_Ross-Fourth-Forbes.427" />
<route id="route_Fifth-Smithfield-WilliamPenn.76" edges="Fifth-Smithfield-WilliamPenn Fifth-WilliamPenn-Grant Fifth-Grant-Ross Fifth-Grant-Ross-2 Ross-Fifth-Forbes Ross-Forbes-Fourth" />
<vehicle type="noVar" depart="88" id="Fifth-Smithfield-WilliamPenn.76" route="route_Fifth-Smithfield-WilliamPenn.76" />
<route id="route_Grant-Fourth-Forbes.144" edges="Grant-Fourth-Forbes Grant-Fourth-Forbes-2 Forbes-Grant-Ross Ross-Forbes-Fifth Ross-Fifth-Sixth Sixth-Ross-RHS" />
<vehicle type="noVar" depart="88" id="Grant-Fourth-Forbes.144" route="route_Grant-Fourth-Forbes.144" />
<route id="route_Ross-Seventh-Sixth.373" edges="Ross-Seventh-Sixth Ross-Sixth-Fifth Ross-Fifth-Forbes Forbes-Ross-Grant Grant-Forbes-Fourth" />
<vehicle type="noVar" depart="88" id="Ross-Seventh-Sixth.373" route="route_Ross-Seventh-Sixth.373" />
<route id="route_WilliamPenn-Seventh-Sixth.184" edges="WilliamPenn-Seventh-Sixth WilliamPenn-Sixth-Oliver WilliamPenn-Oliver-Fifth Fifth-WilliamPenn-Smithfield" />
<vehicle type="noVar" depart="90" id="WilliamPenn-Seventh-Sixth.184" route="route_WilliamPenn-Seventh-Sixth.184" />
<route id="route_Grant-Fourth-Forbes.675" edges="Grant-Fourth-Forbes Grant-Fourth-Forbes-2 Forbes-Grant-WilliamPenn Forbes-WilliamPenn-Smithfield" />
<vehicle type="noVar" depart="90" id="Grant-Fourth-Forbes.675" route="route_Grant-Fourth-Forbes.675" />
<route id="route_Forbes-RHS-Ross.161" edges="Forbes-RHS-Ross Forbes-Ross-Grant Forbes-Grant-WilliamPenn WilliamPenn-Forbes-Fourth" />
<vehicle type="noVar" depart="90" id="Forbes-RHS-Ross.161" route="route_Forbes-RHS-Ross.161" />
<route id="route_WilliamPenn-Seventh-Sixth.238" edges="WilliamPenn-Seventh-Sixth Sixth-WilliamPenn-Smithfield" />
<vehicle type="noVar" depart="93" id="WilliamPenn-Seventh-Sixth.238" route="route_WilliamPenn-Seventh-Sixth.238" />
<route id="route_Grant-Seventh-Sixth.374" edges="Grant-Seventh-Sixth Sixth-Grant-Ross Ross-Sixth-Fifth Ross-Fifth-Forbes Forbes-Ross-RHS" />
<vehicle type="noVar" depart="93" id="Grant-Seventh-Sixth.374" route="route_Grant-Seventh-Sixth.374" />
<route id="route_Ross-Seventh-Sixth.434" edges="Ross-Seventh-Sixth Ross-Sixth-Fifth Ross-Fifth-Forbes Forbes-Ross-RHS" />
<vehicle type="noVar" depart="93" id="Ross-Seventh-Sixth.434" route="route_Ross-Seventh-Sixth.434" />
<route id="route_Forbes-RHS-Ross.152" edges="Forbes-RHS-Ross Forbes-Ross-Grant Forbes-Grant-WilliamPenn Forbes-WilliamPenn-Smithfield" />
<vehicle type="noVar" depart="93" id="Forbes-RHS-Ross.152" route="route_Forbes-RHS-Ross.152" />
<route id="route_WilliamPenn-Seventh-Sixth.70" edges="WilliamPenn-Seventh-Sixth Sixth-WilliamPenn-Grant Sixth-Grant-Ross Ross-Sixth-Fifth Ross-Fifth-Forbes Forbes-Ross-Grant Grant-Forbes-Fourth" />
<vehicle type="noVar" depart="96" id="WilliamPenn-Seventh-Sixth.70" route="route_WilliamPenn-Seventh-Sixth.70" />
<route id="route_Forbes-RHS-Ross.106" edges="Forbes-RHS-Ross Forbes-Ross-Grant Grant-Forbes-Fourth" />
<vehicle type="noVar" depart="96" id="Forbes-RHS-Ross.106" route="route_Forbes-RHS-Ross.106" />
<route id="route_Oliver-Smithfield-WilliamPenn.101" edges="Oliver-Smithfield-WilliamPenn WilliamPenn-Oliver-Fifth WilliamPenn-Fifth-Forbes WilliamPenn-Forbes-Fourth" />
<vehicle type="noVar" depart="96" id="Oliver-Smithfield-WilliamPenn.101" route="route_Oliver-Smithfield-WilliamPenn.101" />
<route id="route_Sixth-RHS-Ross.285" edges="Sixth-RHS-Ross Sixth-Ross-Grant Grant-Sixth-Seventh" />
<vehicle type="noVar" depart="98" id="Sixth-RHS-Ross.285" route="route_Sixth-RHS-Ross.285" />
<route id="route_Grant-Seventh-Sixth.296" edges="Grant-Seventh-Sixth Grant-Sixth-Oliver Grant-Oliver-Fifth Grant-Fifth-Forbes Grant-Forbes-Fourth" />
<vehicle type="noVar" depart="99" id="Grant-Seventh-Sixth.296" route="route_Grant-Seventh-Sixth.296" />
<route id="route_Sixth-Smithfield-WilliamPenn.138" edges="Sixth-Smithfield-WilliamPenn Sixth-WilliamPenn-Grant Sixth-Grant-Ross Ross-Sixth-Seventh" />
<vehicle type="noVar" depart="99" id="Sixth-Smithfield-WilliamPenn.138" route="route_Sixth-Smithfield-WilliamPenn.138" />
<route id="route_Grant-Seventh-Sixth.316" edges="Grant-Seventh-Sixth Sixth-Grant-Ross Ross-Sixth-Fifth Fifth-Ross-RHS" />
<vehicle type="noVar" depart="102" id="Grant-Seventh-Sixth.316" route="route_Grant-Seventh-Sixth.316" />
<route id="route_Grant-Fourth-Forbes.249" edges="Grant-Fourth-Forbes Grant-Fourth-Forbes-2 Grant-Forbes-Fifth Grant-Fifth-Oliver Grant-Oliver-Sixth Grant-Sixth-Seventh" />
<vehicle type="noVar" depart="103" id="Grant-Fourth-Forbes.249" route="route_Grant-Fourth-Forbes.249" />
<route id="route_Ross-Seventh-Sixth.273" edges="Ross-Seventh-Sixth Ross-Sixth-Fifth Ross-Fifth-Forbes Forbes-Ross-Grant Forbes-Grant-WilliamPenn WilliamPenn-Forbes-Fourth" />
<vehicle type="noVar" depart="103" id="Ross-Seventh-Sixth.273" route="route_Ross-Seventh-Sixth.273" />
<route id="route_Grant-Seventh-Sixth.194" edges="Grant-Seventh-Sixth Sixth-Grant-WilliamPenn WilliamPenn-Sixth-Oliver WilliamPenn-Oliver-Fifth WilliamPenn-Fifth-Forbes Forbes-WilliamPenn-Smithfield" />
<vehicle type="noVar" depart="104" id="Grant-Seventh-Sixth.194" route="route_Grant-Seventh-Sixth.194" />