<?xml version="1.0" encoding="UTF-8"?>
<routes xmlns:xsi="http://www.w3.org/2001/XMLSchema-instance" xsi:noNamespaceSchemaLocation="http://sumo.dlr.de/xsd/routes_file.xsd">

<vType id="noVar" speedFactor="1.0" speedDev="0.0"/>
<trip type="noVar" depart="0" id="Grant-Fourth-Forbes.348" from="Grant-Fourth-Forbes" to="Forbes-Ross-RHS" />
<trip type="noVar" depart="2" id="Grant-Seventh-Sixth.323" from="Grant-Seventh-Sixth" to="Sixth-Ross-RHS" />
<trip type="noVar" depart="2" id="WilliamPenn-Seventh-Sixth.222" from="WilliamPenn-Seventh-Sixth" to="Sixth-Ross-RHS" />
<trip type="noVar" depart="2" id="WilliamPenn-Seventh-Sixth.314" from="WilliamPenn-Seventh-Sixth" to="WilliamPenn-Forbes-Fourth" />
<trip type="noVar" depart="2" id="Oliver-Smithfield-WilliamPenn.179" from="Oliver-Smithfield-WilliamPenn" to="Grant-Sixth-Seventh" />
<trip type="noVar" depart="2" id="Ross-Seventh-Sixth.259" from="Ross-Seventh-Sixth" to="Fifth-Ross-RHS" />
<trip type="noVar" depart="2" id="Ross-Seventh-Sixth.381" from="Ross-Seventh-Sixth" to="Ross-Forbes-Fourth" />
<trip type="noVar" depart="3" id="WilliamPenn-Seventh-Sixth.328" from="WilliamPenn-Seventh-Sixth" to="Forbes-WilliamPenn-Smithfield" />
<trip type="noVar" depart="3" id="Fifth-Smithfield-WilliamPenn.67" from="Fifth-Smithfield-WilliamPenn" to="Grant-Sixth-Seventh" />
<trip type="noVar" depart="3" id="Ross-Seventh-Sixth.632" from="Ross-Seventh-Sixth" to="Sixth-Ross-RHS" />
<trip type="noVar" depart="3" id="Ross-Fourth-Forbes.155" from="Ross-Fourth-Forbes" to="Ross-Sixth-Seventh" />
<trip type="noVar" depart="4" id="Grant-Seventh-Sixth.135" from="Grant-Seventh-Sixth" to="Ross-Sixth-Seventh" />
<trip type="noVar" depart="4" id="Oliver-Smithfield-WilliamPenn.11" from="Oliver-Smithfield-WilliamPenn" to="Grant-Forbes-Fourth" />
<trip type="noVar" depart="5" id="Ross-Seventh-Sixth.445" from="Ross-Seventh-Sixth" to="Forbes-WilliamPenn-Smithfield" />
<trip type="noVar" depart="5" id="Sixth-RHS-Ross.338" from="Sixth-RHS-Ross" to="Grant-Sixth-Seventh" />
<trip type="noVar" depart="5" id="Ross-Fourth-Forbes.242" from="Ross-Fourth-Forbes" to="Grant-Sixth-Seventh" />
<trip type="noVar" depart="6" id="Grant-Fourth-Forbes.95" from="Grant-Fourth-Forbes" to="WilliamPenn-Forbes-Fourth" />
<trip type="noVar" depart="6" id="Ross-Seventh-Sixth.518" from="Ross-Seventh-Sixth" to="Sixth-Ross-RHS" />
<trip type="noVar" depart="6" id="Sixth-RHS-Ross.48" from="Sixth-RHS-Ross" to="Sixth-WilliamPenn-Smithfield" />
<trip type="noVar" depart="7" id="Grant-Fourth-Forbes.296" from="Grant-Fourth-Forbes" to="Grant-Sixth-Seventh" />
<trip type="noVar" depart="7" id="Fifth-RHS-Ross.63" from="Fifth-RHS-Ross" to="Fifth-WilliamPenn-Smithfield" />
<trip type="noVar" depart="8" id="Grant-Seventh-Sixth.194" from="Grant-Seventh-Sixth" to="Grant-Forbes-Fourth" />
<trip type="noVar" depart="8" id="Oliver-Smithfield-WilliamPenn.18" from="Oliver-Smithfield-WilliamPenn" to="Grant-Sixth-Seventh" />
<trip type="noVar" depart="8" id="Fifth-RHS-Ross.38" from="Fifth-RHS-Ross" to="Sixth-WilliamPenn-Smithfield" />
<trip type="noVar" depart="8" id="Fifth-RHS-Ross.49" from="Fifth-RHS-Ross" to="Grant-Sixth-Seventh" />
<trip type="noVar" depart="8" id="Ross-Fourth-Forbes.325" from="Ross-Fourth-Forbes" to="Forbes-Ross-RHS" />
<trip type="noVar" depart="9" id="WilliamPenn-Seventh-Sixth.154" from="WilliamPenn-Seventh-Sixth" to="Oliver-WilliamPenn-Smithfield" />
<trip type="noVar" depart="9" id="Forbes-RHS-Ross.390" from="Forbes-RHS-Ross" to="Grant-Forbes-Fourth" />
<trip type="noVar" depart="10" id="Ross-Fourth-Forbes.185" from="Ross-Fourth-Forbes" to="Forbes-Ross-RHS" />
<trip type="noVar" depart="12" id="Grant-Seventh-Sixth.124" from="Grant-Seventh-Sixth" to="Fifth-Ross-RHS" />
<trip type="noVar" depart="12" id="Sixth-Smithfield-WilliamPenn.409" from="Sixth-Smithfield-WilliamPenn" to="Ross-Sixth-Seventh" />
<trip type="noVar" depart="12" id="Ross-Fourth-Forbes.6" from="Ross-Fourth-Forbes" to="Ross-Sixth-Seventh" />
<trip type="noVar" depart="13" id="Grant-Seventh-Sixth.519" from="Grant-Seventh-Sixth" to="Sixth-Ross-RHS" />
<trip type="noVar" depart="13" id="Ross-Seventh-Sixth.377" from="Ross-Seventh-Sixth" to="Ross-Forbes-Fourth" />
<trip type="noVar" depart="13" id="Forbes-RHS-Ross.6" from="Forbes-RHS-Ross" to="Ross-Forbes-Fourth" />
<trip type="noVar" depart="14" id="Fifth-Smithfield-WilliamPenn.99" from="Fifth-Smithfield-WilliamPenn" to="Sixth-Ross-RHS" />
<trip type="noVar" depart="16" id="Sixth-Smithfield-WilliamPenn.250" from="Sixth-Smithfield-WilliamPenn" to="Sixth-Ross-RHS" />
<trip type="noVar" depart="16" id="Grant-Fourth-Forbes.591" from="Grant-Fourth-Forbes" to="Grant-Sixth-Seventh" />
<trip type="noVar" depart="16" id="Sixth-RHS-Ross.78" from="Sixth-RHS-Ross" to="Sixth-WilliamPenn-Smithfield" />
<trip type="noVar" depart="17" id="Grant-Seventh-Sixth.156" from="Grant-Seventh-Sixth" to="Grant-Forbes-Fourth" />
<trip type="noVar" depart="18" id="Ross-Seventh-Sixth.513" from="Ross-Seventh-Sixth" to="Sixth-Ross-RHS" />
<trip type="noVar" depart="18" id="Sixth-RHS-Ross.375" from="Sixth-RHS-Ross" to="Sixth-WilliamPenn-Smithfield" />
<trip type="noVar" depart="18" id="Sixth-RHS-Ross.441" from="Sixth-RHS-Ross" to="Grant-Sixth-Seventh" />
<trip type="noVar" depart="19" id="Sixth-RHS-Ross.74" from="Sixth-RHS-Ross" to="Grant-Sixth-Seventh" />
<trip type="noVar" depart="20" id="Grant-Seventh-Sixth.530" from="Grant-Seventh-Sixth" to="Grant-Forbes-Fourth" />
<trip type="noVar" depart="20" id="Oliver-Smithfield-WilliamPenn.185" from="Oliver-Smithfield-WilliamPenn" to="Sixth-WilliamPenn-Smithfield" />
<trip type="noVar" depart="21" id="Oliver-Smithfield-WilliamPenn.46" from="Oliver-Smithfield-WilliamPenn" to="Grant-Sixth-Seventh" />
<trip type="noVar" depart="21" id="Ross-Seventh-Sixth.504" from="Ross-Seventh-Sixth" to="Fifth-Ross-RHS" />
<trip type="noVar" depart="22" id="Grant-Seventh-Sixth.243" from="Grant-Seventh-Sixth" to="WilliamPenn-Forbes-Fourth" />
<trip type="noVar" depart="22" id="Forbes-RHS-Ross.570" from="Forbes-RHS-Ross" to="WilliamPenn-Forbes-Fourth" />
<trip type="noVar" depart="23" id="Grant-Seventh-Sixth.19" from="Grant-Seventh-Sixth" to="Grant-Forbes-Fourth" />
<trip type="noVar" depart="24" id="Ross-Seventh-Sixth.459" from="Ross-Seventh-Sixth" to="Sixth-Ross-RHS" />
<trip type="noVar" depart="25" id="Grant-Seventh-Sixth.103" from="Grant-Seventh-Sixth" to="Fifth-WilliamPenn-Smithfield" />
<trip type="noVar" depart="25" id="Fifth-RHS-Ross.284" from="Fifth-RHS-Ross" to="Grant-Sixth-Seventh" />
<trip type="noVar" depart="26" id="Ross-Seventh-Sixth.491" from="Ross-Seventh-Sixth" to="Sixth-Ross-RHS" />
<trip type="noVar" depart="28" id="Oliver-Smithfield-WilliamPenn.67" from="Oliver-Smithfield-WilliamPenn" to="Grant-Sixth-Seventh" />
<trip type="noVar" depart="28" id="Forbes-RHS-Ross.407" from="Forbes-RHS-Ross" to="Ross-Forbes-Fourth" />
<trip type="noVar" depart="30" id="Sixth-RHS-Ross.220" from="Sixth-RHS-Ross" to="Sixth-WilliamPenn-Smithfield" />
<trip type="noVar" depart="32" id="Sixth-RHS-Ross.240" from="Sixth-RHS-Ross" to="Sixth-WilliamPenn-Smithfield" />
<trip type="noVar" depart="34" id="Sixth-Smithfield-WilliamPenn.163" from="Sixth-Smithfield-WilliamPenn" to="Oliver-WilliamPenn-Smithfield" />
<trip type="noVar" depart="35" id="Grant-Fourth-Forbes.311" from="Grant-Fourth-Forbes" to="Sixth-Ross-RHS" />
<trip type="noVar" depart="35" id="Ross-Seventh-Sixth.463" from="Ross-Seventh-Sixth" to="Fifth-Ross-RHS" />
<trip type="noVar" depart="35" id="Sixth-RHS-Ross.29" from="Sixth-RHS-Ross" to="Ross-Sixth-Seventh" />
<trip type="noVar" depart="36" id="Grant-Seventh-Sixth.484" from="Grant-Seventh-Sixth" to="Grant-Forbes-Fourth" />
<trip type="noVar" depart="36" id="WilliamPenn-Seventh-Sixth.91" from="WilliamPenn-Seventh-Sixth" to="WilliamPenn-Forbes-Fourth" />
<trip type="noVar" depart="36" id="Sixth-Smithfield-WilliamPenn.63" from="Sixth-Smithfield-WilliamPenn" to="Oliver-WilliamPenn-Smithfield" />
<trip type="noVar" depart="36" id="Sixth-Smithfield-WilliamPenn.421" from="Sixth-Smithfield-WilliamPenn" to="Ross-Forbes-Fourth" />
<trip type="noVar" depart="36" id="Oliver-Smithfield-WilliamPenn.169" from="Oliver-Smithfield-WilliamPenn" to="Grant-Sixth-Seventh" />
<trip type="noVar" depart="36" id="Ross-Seventh-Sixth.14" from="Ross-Seventh-Sixth" to="Grant-Sixth-Seventh" />
<trip type="noVar" depart="37" id="Grant-Seventh-Sixth.255" from="Grant-Seventh-Sixth" to="Grant-Forbes-Fourth" />
<trip type="noVar" depart="39" id="Grant-Fourth-Forbes.399" from="Grant-Fourth-Forbes" to="WilliamPenn-Forbes-Fourth" />
<trip type="noVar" depart="40" id="Sixth-RHS-Ross.238" from="Sixth-RHS-Ross" to="Grant-Sixth-Seventh" />
<trip type="noVar" depart="40" id="Ross-Fourth-Forbes.569" from="Ross-Fourth-Forbes" to="Ross-Sixth-Seventh" />
<trip type="noVar" depart="42" id="Fifth-Smithfield-WilliamPenn.16" from="Fifth-Smithfield-WilliamPenn" to="Grant-Sixth-Seventh" />
<trip type="noVar" depart="42" id="Sixth-RHS-Ross.336" from="Sixth-RHS-Ross" to="Ross-Forbes-Fourth" />
<trip type="noVar" depart="43" id="Grant-Fourth-Forbes.97" from="Grant-Fourth-Forbes" to="Sixth-WilliamPenn-Smithfield" />
<trip type="noVar" depart="43" id="Ross-Seventh-Sixth.589" from="Ross-Seventh-Sixth" to="Sixth-Ross-RHS" />
<trip type="noVar" depart="44" id="Grant-Seventh-Sixth.446" from="Grant-Seventh-Sixth" to="Sixth-Ross-RHS" />
<trip type="noVar" depart="44" id="WilliamPenn-Seventh-Sixth.35" from="WilliamPenn-Seventh-Sixth" to="WilliamPenn-Forbes-Fourth" />
<trip type="noVar" depart="44" id="Grant-Fourth-Forbes.86" from="Grant-Fourth-Forbes" to="Grant-Sixth-Seventh" />
<trip type="noVar" depart="44" id="Sixth-RHS-Ross.97" from="Sixth-RHS-Ross" to="Sixth-WilliamPenn-Smithfield" />
<trip type="noVar" depart="44" id="Forbes-RHS-Ross.424" from="Forbes-RHS-Ross" to="Forbes-WilliamPenn-Smithfield" />
<trip type="noVar" depart="45" id="Ross-Seventh-Sixth.186" from="Ross-Seventh-Sixth" to="WilliamPenn-Forbes-Fourth" />
<trip type="noVar" depart="46" id="Grant-Seventh-Sixth.434" from="Grant-Seventh-Sixth" to="Fifth-WilliamPenn-Smithfield" />
<trip type="noVar" depart="46" id="Oliver-Smithfield-WilliamPenn.292" from="Oliver-Smithfield-WilliamPenn" to="Grant-Forbes-Fourth" />
<trip type="noVar" depart="46" id="Fifth-Smithfield-WilliamPenn.97" from="Fifth-Smithfield-WilliamPenn" to="Grant-Sixth-Seventh" />
<trip type="noVar" depart="47" id="Sixth-RHS-Ross.339" from="Sixth-RHS-Ross" to="Sixth-WilliamPenn-Smithfield" />
<trip type="noVar" depart="48" id="Fifth-RHS-Ross.212" from="Fifth-RHS-Ross" to="Fifth-WilliamPenn-Smithfield" />
<trip type="noVar" depart="49" id="Grant-Seventh-Sixth.402" from="Grant-Seventh-Sixth" to="Grant-Forbes-Fourth" />
<trip type="noVar" depart="49" id="Sixth-Smithfield-WilliamPenn.104" from="Sixth-Smithfield-WilliamPenn" to="Grant-Forbes-Fourth" />
<trip type="noVar" depart="49" id="Forbes-RHS-Ross.452" from="Forbes-RHS-Ross" to="Grant-Forbes-Fourth" />
<trip type="noVar" depart="50" id="Ross-Seventh-Sixth.440" from="Ross-Seventh-Sixth" to="Ross-Forbes-Fourth" />
<trip type="noVar" depart="50" id="Sixth-RHS-Ross.298" from="Sixth-RHS-Ross" to="Grant-Forbes-Fourth" />
<trip type="noVar" depart="52" id="Fifth-RHS-Ross.334" from="Fifth-RHS-Ross" to="Fifth-WilliamPenn-Smithfield" />
<trip type="noVar" depart="52" id="Forbes-RHS-Ross.129" from="Forbes-RHS-Ross" to="Grant-Forbes-Fourth" />
<trip type="noVar" depart="53" id="Grant-Fourth-Forbes.129" from="Grant-Fourth-Forbes" to="Fifth-WilliamPenn-Smithfield" />
<trip type="noVar" depart="53" id="Forbes-RHS-Ross.174" from="Forbes-RHS-Ross" to="Forbes-WilliamPenn-Smithfield" />
<trip type="noVar" depart="54" id="Sixth-Smithfield-WilliamPenn.154" from="Sixth-Smithfield-WilliamPenn" to="Sixth-Ross-RHS" />
<trip type="noVar" depart="55" id="Forbes-RHS-Ross.318" from="Forbes-RHS-Ross" to="WilliamPenn-Forbes-Fourth" />
<trip type="noVar" depart="56" id="Grant-Fourth-Forbes.282" from="Grant-Fourth-Forbes" to="Sixth-Ross-RHS" />
<trip type="noVar" depart="56" id="Sixth-RHS-Ross.28" from="Sixth-RHS-Ross" to="Sixth-WilliamPenn-Smithfield" />
<trip type="noVar" depart="56" id="Sixth-RHS-Ross.160" from="Sixth-RHS-Ross" to="Sixth-WilliamPenn-Smithfield" />
<trip type="noVar" depart="57" id="Grant-Seventh-Sixth.82" from="Grant-Seventh-Sixth" to="Sixth-Ross-RHS" />
<trip type="noVar" depart="57" id="Ross-Seventh-Sixth.334" from="Ross-Seventh-Sixth" to="Fifth-WilliamPenn-Smithfield" />
<trip type="noVar" depart="57" id="Fifth-RHS-Ross.141" from="Fifth-RHS-Ross" to="Fifth-WilliamPenn-Smithfield" />
<trip type="noVar" depart="58" id="Sixth-RHS-Ross.330" from="Sixth-RHS-Ross" to="Grant-Sixth-Seventh" />
<trip type="noVar" depart="58" id="Ross-Fourth-Forbes.480" from="Ross-Fourth-Forbes" to="Forbes-Ross-RHS" />
<trip type="noVar" depart="58" id="Ross-Fourth-Forbes.488" from="Ross-Fourth-Forbes" to="Forbes-Ross-RHS" />
<trip type="noVar" depart="59" id="WilliamPenn-Seventh-Sixth.325" from="WilliamPenn-Seventh-Sixth" to="Sixth-Ross-RHS" />
<trip type="noVar" depart="60" id="Oliver-Smithfield-WilliamPenn.287" from="Oliver-Smithfield-WilliamPenn" to="Grant-Sixth-Seventh" />
<trip type="noVar" depart="60" id="Ross-Seventh-Sixth.485" from="Ross-Seventh-Sixth" to="Sixth-Ross-RHS" />
<trip type="noVar" depart="60" id="Ross-Seventh-Sixth.595" from="Ross-Seventh-Sixth" to="Fifth-Ross-RHS" />
<trip type="noVar" depart="60" id="Fifth-RHS-Ross.116" from="Fifth-RHS-Ross" to="Fifth-WilliamPenn-Smithfield" />
<trip type="noVar" depart="60" id="Forbes-RHS-Ross.45" from="Forbes-RHS-Ross" to="Forbes-WilliamPenn-Smithfield" />
<trip type="noVar" depart="64" id="Grant-Seventh-Sixth.65" from="Grant-Seventh-Sixth" to="Ross-Sixth-Seventh" />
<trip type="noVar" depart="66" id="Grant-Seventh-Sixth.622" from="Grant-Seventh-Sixth" to="Grant-Forbes-Fourth" />
<trip type="noVar" depart="66" id="Ross-Seventh-Sixth.520" from="Ross-Seventh-Sixth" to="Sixth-Ross-RHS" />
<trip type="noVar" depart="68" id="Grant-Seventh-Sixth.614" from="Grant-Seventh-Sixth" to="Grant-Forbes-Fourth" />
<trip type="noVar" depart="68" id="Sixth-Smithfield-WilliamPenn.137" from="Sixth-Smithfield-WilliamPenn" to="Grant-Sixth-Seventh" />
<trip type="noVar" depart="68" id="Ross-Fourth-Forbes.525" from="Ross-Fourth-Forbes" to="Forbes-Ross-RHS" />
<trip type="noVar" depart="69" id="WilliamPenn-Seventh-Sixth.269" from="WilliamPenn-Seventh-Sixth" to="Sixth-WilliamPenn-Smithfield" />
<trip type="noVar" depart="69" id="Fifth-RHS-Ross.214" from="Fifth-RHS-Ross" to="Ross-Sixth-Seventh" />
<trip type="noVar" depart="70" id="Sixth-Smithfield-WilliamPenn.99" from="Sixth-Smithfield-WilliamPenn" to="Ross-Sixth-Seventh" />
<trip type="noVar" depart="70" id="Oliver-Smithfield-WilliamPenn.229" from="Oliver-Smithfield-WilliamPenn" to="Sixth-WilliamPenn-Smithfield" />
<trip type="noVar" depart="72" id="Ross-Seventh-Sixth.229" from="Ross-Seventh-Sixth" to="Grant-Sixth-Seventh" />
<trip type="noVar" depart="72" id="Sixth-RHS-Ross.466" from="Sixth-RHS-Ross" to="Sixth-WilliamPenn-Smithfield" />
<trip type="noVar" depart="72" id="Forbes-RHS-Ross.298" from="Forbes-RHS-Ross" to="WilliamPenn-Forbes-Fourth" />
<trip type="noVar" depart="74" id="Fifth-RHS-Ross.194" from="Fifth-RHS-Ross" to="Grant-Forbes-Fourth" />
<trip type="noVar" depart="75" id="WilliamPenn-Seventh-Sixth.93" from="WilliamPenn-Seventh-Sixth" to="Ross-Sixth-Seventh" />
<trip type="noVar" depart="75" id="Ross-Seventh-Sixth.468" from="Ross-Seventh-Sixth" to="Forbes-Ross-RHS" />
<trip type="noVar" depart="76" id="Forbes-RHS-Ross.101" from="Forbes-RHS-Ross" to="Ross-Forbes-Fourth" />
<trip type="noVar" depart="77" id="Ross-Seventh-Sixth.396" from="Ross-Seventh-Sixth" to="Grant-Forbes-Fourth" />
<trip type="noVar" depart="77" id="Fifth-RHS-Ross.36" from="Fifth-RHS-Ross" to="Grant-Forbes-Fourth" />
<trip type="noVar" depart="78" id="Oliver-Smithfield-WilliamPenn.63" from="Oliver-Smithfield-WilliamPenn" to="Grant-Sixth-Seventh" />
<trip type="noVar" depart="78" id="Forbes-RHS-Ross.374" from="Forbes-RHS-Ross" to="Ross-Forbes-Fourth" />
<trip type="noVar" depart="79" id="Grant-Seventh-Sixth.380" from="Grant-Seventh-Sixth" to="Sixth-WilliamPenn-Smithfield" />
<trip type="noVar" depart="80" id="Grant-Fourth-Forbes.398" from="Grant-Fourth-Forbes" to="Sixth-Ross-RHS" />
<trip type="noVar" depart="80" id="Ross-Seventh-Sixth.247" from="Ross-Seventh-Sixth" to="Ross-Forbes-Fourth" />
<trip type="noVar" depart="80" id="Ross-Fourth-Forbes.292" from="Ross-Fourth-Forbes" to="Forbes-Ross-RHS" />
<trip type="noVar" depart="81" id="Ross-Seventh-Sixth.397" from="Ross-Seventh-Sixth" to="Grant-Sixth-Seventh" />
<trip type="noVar" depart="82" id="Forbes-RHS-Ross.33" from="Forbes-RHS-Ross" to="Forbes-WilliamPenn-Smithfield" />
<trip type="noVar" depart="82" id="Ross-Fourth-Forbes.171" from="Ross-Fourth-Forbes" to="Fifth-Ross-RHS" />
<trip type="noVar" depart="82" id="Ross-Fourth-Forbes.225" from="Ross-Fourth-Forbes" to="Forbes-Ross-RHS" />
<trip type="noVar" depart="83" id="Sixth-RHS-Ross.290" from="Sixth-RHS-Ross" to="Sixth-WilliamPenn-Smithfield" />
<trip type="noVar" depart="84" id="Grant-Fourth-Forbes.179" from="Grant-Fourth-Forbes" to="Forbes-Ross-RHS" />
<trip type="noVar" depart="85" id="WilliamPenn-Seventh-Sixth.342" from="WilliamPenn-Seventh-Sixth" to="Sixth-WilliamPenn-Smithfield" />
<trip type="noVar" depart="87" id="Grant-Seventh-Sixth.616" from="Grant-Seventh-Sixth" to="Grant-Forbes-Fourth" />
<trip type="noVar" depart="89" id="Grant-Fourth-Forbes.54" from="Grant-Fourth-Forbes" to="WilliamPenn-Forbes-Fourth" />
<trip type="noVar" depart="89" id="Forbes-RHS-Ross.465" from="Forbes-RHS-Ross" to="Ross-Forbes-Fourth" />
<trip type="noVar" depart="90" id="WilliamPenn-Seventh-Sixth.224" from="WilliamPenn-Seventh-Sixth" to="Grant-Sixth-Seventh" />
<trip type="noVar" depart="92" id="Ross-Fourth-Forbes.335" from="Ross-Fourth-Forbes" to="Sixth-WilliamPenn-Smithfield" />
<trip type="noVar" depart="93" id="Grant-Seventh-Sixth.353" from="Grant-Seventh-Sixth" to="Sixth-Ross-RHS" />
<trip type="noVar" depart="93" id="Fifth-RHS-Ross.207" from="Fifth-RHS-Ross" to="Fifth-WilliamPenn-Smithfield" />
<trip type="noVar" depart="93" id="Ross-Fourth-Forbes.247" from="Ross-Fourth-Forbes" to="Forbes-Ross-RHS" />
<trip type="noVar" depart="94" id="Forbes-RHS-Ross.430" from="Forbes-RHS-Ross" to="Grant-Forbes-Fourth" />
<trip type="noVar" depart="95" id="Sixth-Smithfield-WilliamPenn.400" from="Sixth-Smithfield-WilliamPenn" to="Sixth-Ross-RHS" />
<trip type="noVar" depart="95" id="Grant-Fourth-Forbes.467" from="Grant-Fourth-Forbes" to="Forbes-Ross-RHS" />
<trip type="noVar" depart="95" id="Ross-Fourth-Forbes.352" from="Ross-Fourth-Forbes" to="Forbes-Ross-RHS" />
<trip type="noVar" depart="96" id="Sixth-Smithfield-WilliamPenn.37" from="Sixth-Smithfield-WilliamPenn" to="WilliamPenn-Forbes-Fourth" />
<trip type="noVar" depart="97" id="Forbes-Smithfield-WilliamPenn.40" from="Forbes-Smithfield-WilliamPenn" to="WilliamPenn-Forbes-Fourth" />
<trip type="noVar" depart="98" id="Ross-Seventh-Sixth.169" from="Ross-Seventh-Sixth" to="Forbes-WilliamPenn-Smithfield" />
<trip type="noVar" depart="98" id="Fifth-RHS-Ross.281" from="Fifth-RHS-Ross" to="Fifth-WilliamPenn-Smithfield" />
<trip type="noVar" depart="99" id="Ross-Seventh-Sixth.529" from="Ross-Seventh-Sixth" to="Sixth-Ross-RHS" />
<trip type="noVar" depart="99" id="Sixth-RHS-Ross.19" from="Sixth-RHS-Ross" to="Sixth-WilliamPenn-Smithfield" />
<trip type="noVar" depart="100" id="Grant-Fourth-Forbes.101" from="Grant-Fourth-Forbes" to="Grant-Sixth-Seventh" />
<trip type="noVar" depart="100" id="Sixth-RHS-Ross.147" from="Sixth-RHS-Ross" to="Sixth-WilliamPenn-Smithfield" />
<trip type="noVar" depart="100" id="Ross-Fourth-Forbes.119" from="Ross-Fourth-Forbes" to="Forbes-Ross-RHS" />
<trip type="noVar" depart="101" id="Grant-Fourth-Forbes.40" from="Grant-Fourth-Forbes" to="Grant-Forbes-Fourth" />
<trip type="noVar" depart="103" id="Oliver-Smithfield-WilliamPenn.205" from="Oliver-Smithfield-WilliamPenn" to="Grant-Sixth-Seventh" />
<trip type="noVar" depart="103" id="Grant-Fourth-Forbes.556" from="Grant-Fourth-Forbes" to="Grant-Sixth-Seventh" />
<trip type="noVar" depart="104" id="Ross-Seventh-Sixth.543" from="Ross-Seventh-Sixth" to="Sixth-Ross-RHS" />
<trip type="noVar" depart="105" id="Sixth-Smithfield-WilliamPenn.425" from="Sixth-Smithfield-WilliamPenn" to="Grant-Forbes-Fourth" />
<trip type="noVar" depart="105" id="Ross-Seventh-Sixth.594" from="Ross-Seventh-Sixth" to="Sixth-Ross-RHS" />
<trip type="noVar" depart="105" id="Sixth-RHS-Ross.282" from="Sixth-RHS-Ross" to="Grant-Sixth-Seventh" />
<trip type="noVar" depart="106" id="Sixth-RHS-Ross.274" from="Sixth-RHS-Ross" to="Sixth-WilliamPenn-Smithfield" />
<trip type="noVar" depart="107" id="Ross-Seventh-Sixth.605" from="Ross-Seventh-Sixth" to="Sixth-WilliamPenn-Smithfield" />
<trip type="noVar" depart="107" id="Sixth-RHS-Ross.227" from="Sixth-RHS-Ross" to="Ross-Sixth-Seventh" />
<trip type="noVar" depart="109" id="Grant-Fourth-Forbes.544" from="Grant-Fourth-Forbes" to="Grant-Sixth-Seventh" />
<trip type="noVar" depart="110" id="Grant-Seventh-Sixth.215" from="Grant-Seventh-Sixth" to="Forbes-Ross-RHS" />
<trip type="noVar" depart="110" id="Grant-Fourth-Forbes.447" from="Grant-Fourth-Forbes" to="Ross-Sixth-Seventh" />
<trip type="noVar" depart="111" id="Sixth-RHS-Ross.165" from="Sixth-RHS-Ross" to="Grant-Sixth-Seventh" />
<trip type="noVar" depart="112" id="Grant-Seventh-Sixth.241" from="Grant-Seventh-Sixth" to="Sixth-Ross-RHS" />
<trip type="noVar" depart="112" id="WilliamPenn-Seventh-Sixth.221" from="WilliamPenn-Seventh-Sixth" to="Sixth-WilliamPenn-Smithfield" />
<trip type="noVar" depart="112" id="Forbes-RHS-Ross.501" from="Forbes-RHS-Ross" to="WilliamPenn-Forbes-Fourth" />
<trip type="noVar" depart="112" id="Ross-Fourth-Forbes.31" from="Ross-Fourth-Forbes" to="Forbes-Ross-RHS" />
<trip type="noVar" depart="113" id="Ross-Fourth-Forbes.540" from="Ross-Fourth-Forbes" to="Sixth-Ross-RHS" />
<trip type="noVar" depart="116" id="Grant-Fourth-Forbes.245" from="Grant-Fourth-Forbes" to="Forbes-Ross-RHS" />
<trip type="noVar" depart="117" id="Grant-Seventh-Sixth.397" from="Grant-Seventh-Sixth" to="Grant-Forbes-Fourth" />
<trip type="noVar" depart="118" id="Oliver-Smithfield-WilliamPenn.230" from="Oliver-Smithfield-WilliamPenn" to="WilliamPenn-Forbes-Fourth" />
<trip type="noVar" depart="119" id="Ross-Fourth-Forbes.526" from="Ross-Fourth-Forbes" to="Forbes-WilliamPenn-Smithfield" />
<trip type="noVar" depart="121" id="Oliver-Smithfield-WilliamPenn.17" from="Oliver-Smithfield-WilliamPenn" to="Fifth-WilliamPenn-Smithfield" />
<trip type="noVar" depart="121" id="Grant-Fourth-Forbes.390" from="Grant-Fourth-Forbes" to="Fifth-Ross-RHS" />
<trip type="noVar" depart="124" id="Grant-Seventh-Sixth.514" from="Grant-Seventh-Sixth" to="Grant-Forbes-Fourth" />
<trip type="noVar" depart="125" id="Oliver-Smithfield-WilliamPenn.203" from="Oliver-Smithfield-WilliamPenn" to="WilliamPenn-Forbes-Fourth" />
<trip type="noVar" depart="125" id="Forbes-RHS-Ross.264" from="Forbes-RHS-Ross" to="Ross-Forbes-Fourth" />
<trip type="noVar" depart="126" id="Sixth-Smithfield-WilliamPenn.58" from="Sixth-Smithfield-WilliamPenn" to="Ross-Sixth-Seventh" />
<trip type="noVar" depart="126" id="Sixth-Smithfield-WilliamPenn.363" from="Sixth-Smithfield-WilliamPenn" to="Sixth-Ross-RHS" />
<trip type="noVar" depart="126" id="Ross-Seventh-Sixth.435" from="Ross-Seventh-Sixth" to="Sixth-WilliamPenn-Smithfield" />
<trip type="noVar" depart="127" id="WilliamPenn-Seventh-Sixth.1" from="WilliamPenn-Seventh-Sixth" to="WilliamPenn-Forbes-Fourth" />
<trip type="noVar" depart="127" id="Forbes-RHS-Ross.325" from="Forbes-RHS-Ross" to="Grant-Forbes-Fourth" />
<trip type="noVar" depart="127" id="Ross-Fourth-Forbes.45" from="Ross-Fourth-Forbes" to="Forbes-Ross-RHS" />
<trip type="noVar" depart="129" id="Forbes-RHS-Ross.36" from="Forbes-RHS-Ross" to="Grant-Forbes-Fourth" />
<trip type="noVar" depart="130" id="Grant-Seventh-Sixth.278" from="Grant-Seventh-Sixth" to="Grant-Forbes-Fourth" />
<trip type="noVar" depart="130" id="Grant-Fourth-Forbes.22" from="Grant-Fourth-Forbes" to="Grant-Sixth-Seventh" />
<trip type="noVar" depart="130" id="Forbes-RHS-Ross.17" from="Forbes-RHS-Ross" to="WilliamPenn-Forbes-Fourth" />
<trip type="noVar" depart="131" id="Oliver-Smithfield-WilliamPenn.135" from="Oliver-Smithfield-WilliamPenn" to="Ross-Sixth-Seventh" />
<trip type="noVar" depart="133" id="Sixth-RHS-Ross.80" from="Sixth-RHS-Ross" to="Sixth-WilliamPenn-Smithfield" />
<trip type="noVar" depart="133" id="Forbes-RHS-Ross.171" from="Forbes-RHS-Ross" to="WilliamPenn-Forbes-Fourth" />
<trip type="noVar" depart="134" id="Forbes-RHS-Ross.571" from="Forbes-RHS-Ross" to="Grant-Forbes-Fourth" />
<trip type="noVar" depart="135" id="Oliver-Smithfield-WilliamPenn.176" from="Oliver-Smithfield-WilliamPenn" to="WilliamPenn-Forbes-Fourth" />
<trip type="noVar" depart="135" id="Ross-Fourth-Forbes.297" from="Ross-Fourth-Forbes" to="Grant-Forbes-Fourth" />
<trip type="noVar" depart="136" id="Sixth-Smithfield-WilliamPenn.386" from="Sixth-Smithfield-WilliamPenn" to="Sixth-Ross-RHS" />
<trip type="noVar" depart="137" id="Ross-Seventh-Sixth.310" from="Ross-Seventh-Sixth" to="Ross-Forbes-Fourth" />
<trip type="noVar" depart="137" id="Sixth-RHS-Ross.161" from="Sixth-RHS-Ross" to="WilliamPenn-Forbes-Fourth" />
<trip type="noVar" depart="138" id="Oliver-Smithfield-WilliamPenn.202" from="Oliver-Smithfield-WilliamPenn" to="Grant-Sixth-Seventh" />
<trip type="noVar" depart="138" id="Ross-Seventh-Sixth.69" from="Ross-Seventh-Sixth" to="Sixth-Ross-RHS" />
<trip type="noVar" depart="138" id="Fifth-RHS-Ross.317" from="Fifth-RHS-Ross" to="WilliamPenn-Forbes-Fourth" />
<trip type="noVar" depart="139" id="Sixth-Smithfield-WilliamPenn.81" from="Sixth-Smithfield-WilliamPenn" to="Sixth-Ross-RHS" />
<trip type="noVar" depart="139" id="Ross-Fourth-Forbes.479" from="Ross-Fourth-Forbes" to="Forbes-Ross-RHS" />
<trip type="noVar" depart="140" id="Sixth-RHS-Ross.379" from="Sixth-RHS-Ross" to="Grant-Sixth-Seventh" />
<trip type="noVar" depart="140" id="Fifth-RHS-Ross.68" from="Fifth-RHS-Ross" to="WilliamPenn-Forbes-Fourth" />
<trip type="noVar" depart="140" id="Ross-Fourth-Forbes.136" from="Ross-Fourth-Forbes" to="Ross-Sixth-Seventh" />
<trip type="noVar" depart="142" id="Sixth-Smithfield-WilliamPenn.266" from="Sixth-Smithfield-WilliamPenn" to="Sixth-Ross-RHS" />
<trip type="noVar" depart="144" id="Grant-Seventh-Sixth.456" from="Grant-Seventh-Sixth" to="Fifth-Ross-RHS" />
<trip type="noVar" depart="144" id="Oliver-Smithfield-WilliamPenn.250" from="Oliver-Smithfield-WilliamPenn" to="WilliamPenn-Forbes-Fourth" />
<trip type="noVar" depart="144" id="Ross-Seventh-Sixth.264" from="Ross-Seventh-Sixth" to="Sixth-Ross-RHS" />
<trip type="noVar" depart="144" id="Sixth-RHS-Ross.56" from="Sixth-RHS-Ross" to="Forbes-Ross-RHS" />
<trip type="noVar" depart="145" id="Oliver-Smithfield-WilliamPenn.173" from="Oliver-Smithfield-WilliamPenn" to="Forbes-WilliamPenn-Smithfield" />
<trip type="noVar" depart="147" id="Ross-Seventh-Sixth.272" from="Ross-Seventh-Sixth" to="Forbes-Ross-RHS" />
<trip type="noVar" depart="148" id="WilliamPenn-Seventh-Sixth.8" from="WilliamPenn-Seventh-Sixth" to="Fifth-WilliamPenn-Smithfield" />
<trip type="noVar" depart="148" id="Sixth-Smithfield-WilliamPenn.378" from="Sixth-Smithfield-WilliamPenn" to="Ross-Sixth-Seventh" />
<trip type="noVar" depart="149" id="Grant-Seventh-Sixth.142" from="Grant-Seventh-Sixth" to="Grant-Forbes-Fourth" />
<trip type="noVar" depart="149" id="Grant-Fourth-Forbes.320" from="Grant-Fourth-Forbes" to="Ross-Forbes-Fourth" />
<trip type="noVar" depart="149" id="Grant-Fourth-Forbes.450" from="Grant-Fourth-Forbes" to="WilliamPenn-Forbes-Fourth" />
<trip type="noVar" depart="150" id="Grant-Seventh-Sixth.302" from="Grant-Seventh-Sixth" to="Sixth-Ross-RHS" />
<trip type="noVar" depart="150" id="Ross-Seventh-Sixth.143" from="Ross-Seventh-Sixth" to="Forbes-Ross-RHS" />
<trip type="noVar" depart="150" id="Ross-Fourth-Forbes.36" from="Ross-Fourth-Forbes" to="Ross-Sixth-Seventh" />
<trip type="noVar" depart="151" id="Ross-Seventh-Sixth.253" from="Ross-Seventh-Sixth" to="Sixth-Ross-RHS" />
<trip type="noVar" depart="151" id="Ross-Seventh-Sixth.478" from="Ross-Seventh-Sixth" to="Ross-Forbes-Fourth" />
<trip type="noVar" depart="152" id="WilliamPenn-Seventh-Sixth.162" from="WilliamPenn-Seventh-Sixth" to="WilliamPenn-Forbes-Fourth" />
<trip type="noVar" depart="152" id="Sixth-Smithfield-WilliamPenn.52" from="Sixth-Smithfield-WilliamPenn" to="Ross-Sixth-Seventh" />
<trip type="noVar" depart="152" id="Forbes-RHS-Ross.500" from="Forbes-RHS-Ross" to="Grant-Forbes-Fourth" />
<trip type="noVar" depart="153" id="Grant-Seventh-Sixth.438" from="Grant-Seventh-Sixth" to="Grant-Forbes-Fourth" />
<trip type="noVar" depart="153" id="Oliver-Smithfield-WilliamPenn.82" from="Oliver-Smithfield-WilliamPenn" to="Fifth-WilliamPenn-Smithfield" />
<trip type="noVar" depart="155" id="Ross-Fourth-Forbes.192" from="Ross-Fourth-Forbes" to="Fifth-Ross-RHS" />
<trip type="noVar" depart="157" id="WilliamPenn-Seventh-Sixth.136" from="WilliamPenn-Seventh-Sixth" to="Fifth-WilliamPenn-Smithfield" />
<trip type="noVar" depart="157" id="Ross-Fourth-Forbes.11" from="Ross-Fourth-Forbes" to="Forbes-Ross-RHS" />
<trip type="noVar" depart="159" id="Grant-Seventh-Sixth.296" from="Grant-Seventh-Sixth" to="Sixth-Ross-RHS" />
<trip type="noVar" depart="160" id="Grant-Seventh-Sixth.515" from="Grant-Seventh-Sixth" to="Sixth-Ross-RHS" />
<trip type="noVar" depart="160" id="Oliver-Smithfield-WilliamPenn.226" from="Oliver-Smithfield-WilliamPenn" to="Sixth-WilliamPenn-Smithfield" />
<trip type="noVar" depart="160" id="Grant-Fourth-Forbes.203" from="Grant-Fourth-Forbes" to="Forbes-Ross-RHS" />
<trip type="noVar" depart="160" id="Grant-Fourth-Forbes.359" from="Grant-Fourth-Forbes" to="Forbes-WilliamPenn-Smithfield" />
<trip type="noVar" depart="160" id="Fifth-RHS-Ross.56" from="Fifth-RHS-Ross" to="Sixth-Ross-RHS" />