<?xml version="1.0" encoding="UTF-8"?>
<routes xmlns:xsi="http://www.w3.org/2001/XMLSchema-instance" xsi:noNamespaceSchemaLocation="http://sumo.dlr.de/xsd/routes_file.xsd">

<vType id="noVar" speedFactor="1.0" speedDev="0.0"/>
<route id="route_Ross-Seventh-Sixth.238" edges="Ross-Seventh-Sixth Ross-Seventh-Sixth-2 Ross-Sixth-Fifth Ross-Fifth-Forbes Forbes-Ross-Grant Grant-Forbes-Fourth" />
<vehicle type="noVar" depart="2" id="Ross-Seventh-Sixth.238" route="route_Ross-Seventh-Sixth.238" />
<route id="route_Grant-Seventh-Sixth.80" edges="Grant-Seventh-Sixth Grant-Seventh-Sixth-2 Sixth-Grant-WilliamPenn WilliamPenn-Sixth-Oliver WilliamPenn-Oliver-Fifth WilliamPenn-Fifth-Forbes Forbes-WilliamPenn-Smithfield" />
<vehicle type="noVar" depart="3" id="Grant-Seventh-Sixth.80" route="route_Grant-Seventh-Sixth.80" />
<route id="route_Ross-Seventh-Sixth.304" edges="Ross-Seventh-Sixth Ross-Seventh-Sixth-2 Ross-Sixth-Fifth Ross-Fifth-Forbes Ross-Forbes-Fourth" />
<vehicle type="noVar" depart="3" id="Ross-Seventh-Sixth.304" route="route_Ross-Seventh-Sixth.304" />
<route id="route_Grant-Seventh-Sixth.103" edges="Grant-Seventh-Sixth Grant-Seventh-Sixth-2 Sixth-Grant-Ross Sixth-Ross-RHS" />
<vehicle type="noVar" depart="4" id="Grant-Seventh-Sixth.103" route="route_Grant-Seventh-Sixth.103" />
<route id="route_Ross-Seventh-Sixth.293" edges="Ross-Seventh-Sixth Ross-Seventh-Sixth-2 Sixth-Ross-Grant Grant-Sixth-Seventh" />
<vehicle type="noVar" depart="4" id="Ross-Seventh-Sixth.293" route="route_Ross-Seventh-Sixth.293" />
<route id="route_WilliamPenn-Seventh-Sixth.163" edges="WilliamPenn-Seventh-Sixth WilliamPenn-Seventh-Sixth-2 Sixth-WilliamPenn-Grant Sixth-Grant-Ross Sixth-Ross-RHS" />
<vehicle type="noVar" depart="5" id="WilliamPenn-Seventh-Sixth.163" route="route_WilliamPenn-Seventh-Sixth.163" />
<route id="route_Ross-Fourth-Forbes.218" edges="Ross-Fourth-Forbes Ross-Fourth-Forbes-2 Forbes-Ross-RHS" />
<vehicle type="noVar" depart="5" id="Ross-Fourth-Forbes.218" route="route_Ross-Fourth-Forbes.218" />
<route id="route_Ross-Fourth-Forbes.277" edges="Ross-Fourth-Forbes Ross-Fourth-Forbes-2 Forbes-Ross-RHS" />
<vehicle type="noVar" depart="5" id="Ross-Fourth-Forbes.277" route="route_Ross-Fourth-Forbes.277" />
<route id="route_Oliver-Smithfield-WilliamPenn.172" edges="Oliver-Smithfield-WilliamPenn Oliver-Smithfield-WilliamPenn-2 WilliamPenn-Oliver-Fifth WilliamPenn-Fifth-Forbes WilliamPenn-Forbes-Fourth" />
<vehicle type="noVar" depart="6" id="Oliver-Smithfield-WilliamPenn.172" route="route_Oliver-Smithfield-WilliamPenn.172" />
<route id="route_Ross-Fourth-Forbes.47" edges="Ross-Fourth-Forbes Ross-Fourth-Forbes-2 Forbes-Ross-RHS" />
<vehicle type="noVar" depart="6" id="Ross-Fourth-Forbes.47" route="route_Ross-Fourth-Forbes.47" />
<route id="route_Oliver-Smithfield-WilliamPenn.160" edges="Oliver-Smithfield-WilliamPenn Oliver-Smithfield-WilliamPenn-2 WilliamPenn-Oliver-Fifth Fifth-WilliamPenn-Smithfield" />
<vehicle type="noVar" depart="9" id="Oliver-Smithfield-WilliamPenn.160" route="route_Oliver-Smithfield-WilliamPenn.160" />
<route id="route_WilliamPenn-Seventh-Sixth.49" edges="WilliamPenn-Seventh-Sixth WilliamPenn-Seventh-Sixth-2 Sixth-WilliamPenn-Smithfield" />
<vehicle type="noVar" depart="11" id="WilliamPenn-Seventh-Sixth.49" route="route_WilliamPenn-Seventh-Sixth.49" />
<route id="route_Ross-Fourth-Forbes.130" edges="Ross-Fourth-Forbes Ross-Fourth-Forbes-2 Ross-Forbes-Fifth Ross-Fifth-Sixth Sixth-Ross-Grant Sixth-Grant-WilliamPenn Sixth-WilliamPenn-Smithfield" />
<vehicle type="noVar" depart="11" id="Ross-Fourth-Forbes.130" route="route_Ross-Fourth-Forbes.130" />
<route id="route_Oliver-Smithfield-WilliamPenn.54" edges="Oliver-Smithfield-WilliamPenn Oliver-Smithfield-WilliamPenn-2 Oliver-WilliamPenn-Grant Grant-Oliver-Sixth Grant-Sixth-Seventh" />
<vehicle type="noVar" depart="12" id="Oliver-Smithfield-WilliamPenn.54" route="route_Oliver-Smithfield-WilliamPenn.54" />
<route id="route_Fifth-RHS-Ross.115" edges="Fifth-RHS-Ross Fifth-RHS-Ross-2 Ross-Fifth-Forbes Ross-Forbes-Fourth" />
<vehicle type="noVar" depart="12" id="Fifth-RHS-Ross.115" route="route_Fifth-RHS-Ross.115" />
<route id="route_Grant-Seventh-Sixth.248" edges="Grant-Seventh-Sixth Grant-Seventh-Sixth-2 Sixth-Grant-Ross Ross-Sixth-Fifth Ross-Fifth-Forbes Forbes-Ross-Grant Grant-Forbes-Fourth" />
<vehicle type="noVar" depart="15" id="Grant-Seventh-Sixth.248" route="route_Grant-Seventh-Sixth.248" />
<route id="route_Grant-Fourth-Forbes.231" edges="Grant-Fourth-Forbes Grant-Fourth-Forbes-2 Grant-Fourth-Forbes-3 Grant-Forbes-Fifth Grant-Fifth-Oliver Grant-Oliver-Sixth Grant-Sixth-Seventh" />
<vehicle type="noVar" depart="15" id="Grant-Fourth-Forbes.231" route="route_Grant-Fourth-Forbes.231" />
<route id="route_Grant-Fourth-Forbes.261" edges="Grant-Fourth-Forbes Grant-Fourth-Forbes-2 Grant-Fourth-Forbes-3 Forbes-Grant-Ross Forbes-Ross-RHS" />
<vehicle type="noVar" depart="15" id="Grant-Fourth-Forbes.261" route="route_Grant-Fourth-Forbes.261" />
<route id="route_Fifth-RHS-Ross.161" edges="Fifth-RHS-Ross Fifth-RHS-Ross-2 Fifth-Ross-Grant Fifth-Ross-Grant-2 Fifth-Grant-WilliamPenn Fifth-WilliamPenn-Smithfield" />
<vehicle type="noVar" depart="15" id="Fifth-RHS-Ross.161" route="route_Fifth-RHS-Ross.161" />
<route id="route_Ross-Fourth-Forbes.13" edges="Ross-Fourth-Forbes Ross-Fourth-Forbes-2 Ross-Forbes-Fifth Ross-Fifth-Sixth Ross-Sixth-Seventh" />
<vehicle type="noVar" depart="15" id="Ross-Fourth-Forbes.13" route="route_Ross-Fourth-Forbes.13" />
<route id="route_Grant-Seventh-Sixth.189" edges="Grant-Seventh-Sixth Grant-Seventh-Sixth-2 Sixth-Grant-Ross Sixth-Ross-RHS" />
<vehicle type="noVar" depart="16" id="Grant-Seventh-Sixth.189" route="route_Grant-Seventh-Sixth.189" />
<route id="route_Sixth-Smithfield-WilliamPenn.171" edges="Sixth-Smithfield-WilliamPenn Sixth-Smithfield-WilliamPenn-2 Sixth-WilliamPenn-Grant Sixth-Grant-Ross Sixth-Ross-RHS" />
<vehicle type="noVar" depart="16" id="Sixth-Smithfield-WilliamPenn.171" route="route_Sixth-Smithfield-WilliamPenn.171" />
<route id="route_Forbes-RHS-Ross.258" edges="Forbes-RHS-Ross Forbes-RHS-Ross-2 Forbes-Ross-Grant Forbes-Grant-WilliamPenn Forbes-WilliamPenn-Smithfield" />
<vehicle type="noVar" depart="16" id="Forbes-RHS-Ross.258" route="route_Forbes-RHS-Ross.258" />
<route id="route_Sixth-RHS-Ross.119" edges="Sixth-RHS-Ross Sixth-RHS-Ross-2 Sixth-Ross-Grant Sixth-Grant-WilliamPenn Sixth-WilliamPenn-Smithfield" />
<vehicle type="noVar" depart="19" id="Sixth-RHS-Ross.119" route="route_Sixth-RHS-Ross.119" />
<route id="route_Forbes-RHS-Ross.292" edges="Forbes-RHS-Ross Forbes-RHS-Ross-2 Forbes-Ross-Grant Grant-Forbes-Fourth" />
<vehicle type="noVar" depart="20" id="Forbes-RHS-Ross.292" route="route_Forbes-RHS-Ross.292" />
<route id="route_Grant-Seventh-Sixth.56" edges="Grant-Seventh-Sixth Grant-Seventh-Sixth-2 Sixth-Grant-Ross Ross-Sixth-Fifth Ross-Fifth-Forbes Forbes-Ross-Grant Grant-Forbes-Fourth" />
<vehicle type="noVar" depart="22" id="Grant-Seventh-Sixth.56" route="route_Grant-Seventh-Sixth.56" />
<route id="route_Grant-Seventh-Sixth.157" edges="Grant-Seventh-Sixth Grant-Seventh-Sixth-2 Sixth-Grant-Ross Ross-Sixth-Fifth Ross-Fifth-Forbes Forbes-Ross-Grant Grant-Forbes-Fourth" />
<vehicle type="noVar" depart="22" id="Grant-Seventh-Sixth.157" route="route_Grant-Seventh-Sixth.157" />
<route id="route_Ross-Fourth-Forbes.31" edges="Ross-Fourth-Forbes Ross-Fourth-Forbes-2 Forbes-Ross-RHS" />
<vehicle type="noVar" depart="22" id="Ross-Fourth-Forbes.31" route="route_Ross-Fourth-Forbes.31" />
<route id="route_Grant-Seventh-Sixth.274" edges="Grant-Seventh-Sixth Grant-Seventh-Sixth-2 Sixth-Grant-Ross Ross-Sixth-Fifth Ross-Fifth-Forbes Forbes-Ross-Grant Grant-Forbes-Fourth" />
<vehicle type="noVar" depart="23" id="Grant-Seventh-Sixth.274" route="route_Grant-Seventh-Sixth.274" />
<route id="route_Grant-Fourth-Forbes.217" edges="Grant-Fourth-Forbes Grant-Fourth-Forbes-2 Grant-Fourth-Forbes-3 Forbes-Grant-Ross Forbes-Ross-RHS" />
<vehicle type="noVar" depart="23" id="Grant-Fourth-Forbes.217" route="route_Grant-Fourth-Forbes.217" />
<route id="route_Sixth-RHS-Ross.206" edges="Sixth-RHS-Ross Sixth-RHS-Ross-2 Sixth-Ross-Grant Grant-Sixth-Seventh" />
<vehicle type="noVar" depart="24" id="Sixth-RHS-Ross.206" route="route_Sixth-RHS-Ross.206" />
<route id="route_Grant-Fourth-Forbes.129" edges="Grant-Fourth-Forbes Grant-Fourth-Forbes-2 Grant-Fourth-Forbes-3 Grant-Forbes-Fifth Fifth-Grant-WilliamPenn Fifth-WilliamPenn-Smithfield" />
<vehicle type="noVar" depart="25" id="Grant-Fourth-Forbes.129" route="route_Grant-Fourth-Forbes.129" />
<route id="route_Forbes-RHS-Ross.151" edges="Forbes-RHS-Ross Forbes-RHS-Ross-2 Forbes-Ross-Grant Forbes-Grant-WilliamPenn Forbes-WilliamPenn-Smithfield" />
<vehicle type="noVar" depart="26" id="Forbes-RHS-Ross.151" route="route_Forbes-RHS-Ross.151" />
<route id="route_Forbes-RHS-Ross.174" edges="Forbes-RHS-Ross Forbes-RHS-Ross-2 Forbes-Ross-Grant Grant-Forbes-Fourth" />
<vehicle type="noVar" depart="26" id="Forbes-RHS-Ross.174" route="route_Forbes-RHS-Ross.174" />
<route id="route_Sixth-RHS-Ross.229" edges="Sixth-RHS-Ross Sixth-RHS-Ross-2 Sixth-Ross-Grant Grant-Sixth-Seventh" />
<vehicle type="noVar" depart="27" id="Sixth-RHS-Ross.229" route="route_Sixth-RHS-Ross.229" />
<route id="route_Sixth-RHS-Ross.168" edges="Sixth-RHS-Ross Sixth-RHS-Ross-2 Sixth-Ross-Grant Sixth-Grant-WilliamPenn Sixth-WilliamPenn-Smithfield" />
<vehicle type="noVar" depart="28" id="Sixth-RHS-Ross.168" route="route_Sixth-RHS-Ross.168" />
<route id="route_WilliamPenn-Seventh-Sixth.30" edges="WilliamPenn-Seventh-Sixth WilliamPenn-Seventh-Sixth-2 Sixth-WilliamPenn-Grant Sixth-Grant-Ross Ross-Sixth-Seventh" />
<vehicle type="noVar" depart="31" id="WilliamPenn-Seventh-Sixth.30" route="route_WilliamPenn-Seventh-Sixth.30" />
<route id="route_Sixth-RHS-Ross.243" edges="Sixth-RHS-Ross Sixth-RHS-Ross-2 Sixth-Ross-Grant Sixth-Grant-WilliamPenn Sixth-WilliamPenn-Smithfield" />
<vehicle type="noVar" depart="32" id="Sixth-RHS-Ross.243" route="route_Sixth-RHS-Ross.243" />
<route id="route_Ross-Seventh-Sixth.49" edges="Ross-Seventh-Sixth Ross-Seventh-Sixth-2 Ross-Sixth-Fifth Fifth-Ross-Grant Fifth-Ross-Grant-2 Fifth-Grant-WilliamPenn Fifth-WilliamPenn-Smithfield" />
<vehicle type="noVar" depart="33" id="Ross-Seventh-Sixth.49" route="route_Ross-Seventh-Sixth.49" />
<route id="route_Sixth-RHS-Ross.131" edges="Sixth-RHS-Ross Sixth-RHS-Ross-2 Sixth-Ross-Grant Sixth-Grant-WilliamPenn Sixth-WilliamPenn-Smithfield" />
<vehicle type="noVar" depart="33" id="Sixth-RHS-Ross.131" route="route_Sixth-RHS-Ross.131" />
<route id="route_Ross-Fourth-Forbes.171" edges="Ross-Fourth-Forbes Ross-Fourth-Forbes-2 Ross-Forbes-Fifth Ross-Fifth-Sixth Ross-Sixth-Seventh" />
<vehicle type="noVar" depart="33" id="Ross-Fourth-Forbes.171" route="route_Ross-Fourth-Forbes.171" />
<route id="route_Fifth-RHS-Ross.180" edges="Fifth-RHS-Ross Fifth-RHS-Ross-2 Ross-Fifth-Sixth Sixth-Ross-RHS" />
<vehicle type="noVar" depart="34" id="Fifth-RHS-Ross.180" route="route_Fifth-RHS-Ross.180" />
<route id="route_Grant-Fourth-Forbes.235" edges="Grant-Fourth-Forbes Grant-Fourth-Forbes-2 Grant-Fourth-Forbes-3 Forbes-Grant-Ross Ross-Forbes-Fifth Ross-Fifth-Sixth Ross-Sixth-Seventh" />
<vehicle type="noVar" depart="36" id="Grant-Fourth-Forbes.235" route="route_Grant-Fourth-Forbes.235" />
<route id="route_Sixth-RHS-Ross.210" edges="Sixth-RHS-Ross Sixth-RHS-Ross-2 Sixth-Ross-Grant Sixth-Grant-WilliamPenn Sixth-WilliamPenn-Smithfield" />
<vehicle type="noVar" depart="36" id="Sixth-RHS-Ross.210" route="route_Sixth-RHS-Ross.210" />
<route id="route_Sixth-Smithfield-WilliamPenn.21" edges="Sixth-Smithfield-WilliamPenn Sixth-Smithfield-WilliamPenn-2 WilliamPenn-Sixth-Oliver WilliamPenn-Oliver-Fifth WilliamPenn-Fifth-Forbes WilliamPenn-Forbes-Fourth" />
<vehicle type="noVar" depart="39" id="Sixth-Smithfield-WilliamPenn.21" route="route_Sixth-Smithfield-WilliamPenn.21" />
<route id="route_Sixth-Smithfield-WilliamPenn.138" edges="Sixth-Smithfield-WilliamPenn Sixth-Smithfield-WilliamPenn-2 Sixth-WilliamPenn-Grant Sixth-Grant-Ross Sixth-Ross-RHS" />
<vehicle type="noVar" depart="39" id="Sixth-Smithfield-WilliamPenn.138" route="route_Sixth-Smithfield-WilliamPenn.138" />
<route id="route_Ross-Seventh-Sixth.64" edges="Ross-Seventh-Sixth Ross-Seventh-Sixth-2 Ross-Sixth-Fifth Ross-Fifth-Forbes Ross-Forbes-Fourth" />
<vehicle type="noVar" depart="39" id="Ross-Seventh-Sixth.64" route="route_Ross-Seventh-Sixth.64" />
<route id="route_Fifth-Smithfield-WilliamPenn.42" edges="Fifth-Smithfield-WilliamPenn Fifth-Smithfield-WilliamPenn-2 Fifth-WilliamPenn-Grant Grant-Fifth-Oliver Grant-Oliver-Sixth Grant-Sixth-Seventh" />
<vehicle type="noVar" depart="40" id="Fifth-Smithfield-WilliamPenn.42" route="route_Fifth-Smithfield-WilliamPenn.42" />
<route id="route_Sixth-Smithfield-WilliamPenn.149" edges="Sixth-Smithfield-WilliamPenn Sixth-Smithfield-WilliamPenn-2 Sixth-WilliamPenn-Grant Grant-Sixth-Seventh" />
<vehicle type="noVar" depart="41" id="Sixth-Smithfield-WilliamPenn.149" route="route_Sixth-Smithfield-WilliamPenn.149" />
<route id="route_Fifth-RHS-Ross.88" edges="Fifth-RHS-Ross Fifth-RHS-Ross-2 Fifth-Ross-Grant Fifth-Ross-Grant-2 Fifth-Grant-WilliamPenn Fifth-WilliamPenn-Smithfield" />
<vehicle type="noVar" depart="41" id="Fifth-RHS-Ross.88" route="route_Fifth-RHS-Ross.88" />
<route id="route_Grant-Fourth-Forbes.111" edges="Grant-Fourth-Forbes Grant-Fourth-Forbes-2 Grant-Fourth-Forbes-3 Grant-Forbes-Fifth Grant-Fifth-Oliver Grant-Oliver-Sixth Grant-Sixth-Seventh" />
<vehicle type="noVar" depart="43" id="Grant-Fourth-Forbes.111" route="route_Grant-Fourth-Forbes.111" />
<route id="route_Ross-Seventh-Sixth.127" edges="Ross-Seventh-Sixth Ross-Seventh-Sixth-2 Sixth-Ross-Grant Grant-Sixth-Seventh" />
<vehicle type="noVar" depart="45" id="Ross-Seventh-Sixth.127" route="route_Ross-Seventh-Sixth.127" />
<route id="route_WilliamPenn-Seventh-Sixth.115" edges="WilliamPenn-Seventh-Sixth WilliamPenn-Seventh-Sixth-2 WilliamPenn-Sixth-Oliver WilliamPenn-Oliver-Fifth WilliamPenn-Fifth-Forbes WilliamPenn-Forbes-Fourth" />
<vehicle type="noVar" depart="48" id="WilliamPenn-Seventh-Sixth.115" route="route_WilliamPenn-Seventh-Sixth.115" />
<route id="route_Forbes-RHS-Ross.156" edges="Forbes-RHS-Ross Forbes-RHS-Ross-2 Ross-Forbes-Fourth" />
<vehicle type="noVar" depart="48" id="Forbes-RHS-Ross.156" route="route_Forbes-RHS-Ross.156" />
<route id="route_Grant-Seventh-Sixth.307" edges="Grant-Seventh-Sixth Grant-Seventh-Sixth-2 Sixth-Grant-Ross Ross-Sixth-Fifth Ross-Fifth-Forbes Forbes-Ross-Grant Grant-Forbes-Fourth" />
<vehicle type="noVar" depart="49" id="Grant-Seventh-Sixth.307" route="route_Grant-Seventh-Sixth.307" />
<route id="route_Sixth-RHS-Ross.213" edges="Sixth-RHS-Ross Sixth-RHS-Ross-2 Ross-Sixth-Fifth Ross-Fifth-Forbes Forbes-Ross-Grant Grant-Forbes-Fourth" />
<vehicle type="noVar" depart="50" id="Sixth-RHS-Ross.213" route="route_Sixth-RHS-Ross.213" />
<route id="route_Sixth-RHS-Ross.239" edges="Sixth-RHS-Ross Sixth-RHS-Ross-2 Ross-Sixth-Seventh" />
<vehicle type="noVar" depart="51" id="Sixth-RHS-Ross.239" route="route_Sixth-RHS-Ross.239" />
<route id="route_Grant-Fourth-Forbes.74" edges="Grant-Fourth-Forbes Grant-Fourth-Forbes-2 Grant-Fourth-Forbes-3 Grant-Forbes-Fifth Grant-Fifth-Oliver Grant-Oliver-Sixth Grant-Sixth-Seventh" />
<vehicle type="noVar" depart="52" id="Grant-Fourth-Forbes.74" route="route_Grant-Fourth-Forbes.74" />
<route id="route_Fifth-RHS-Ross.56" edges="Fifth-RHS-Ross Fifth-RHS-Ross-2 Ross-Fifth-Forbes Forbes-Ross-Grant Grant-Forbes-Fourth" />
<vehicle type="noVar" depart="53" id="Fifth-RHS-Ross.56" route="route_Fifth-RHS-Ross.56" />
<route id="route_Fifth-RHS-Ross.159" edges="Fifth-RHS-Ross Fifth-RHS-Ross-2 Fifth-Ross-Grant Fifth-Ross-Grant-2 Fifth-Grant-WilliamPenn Fifth-WilliamPenn-Smithfield" />
<vehicle type="noVar" depart="53" id="Fifth-RHS-Ross.159" route="route_Fifth-RHS-Ross.159" />
<route id="route_Ross-Fourth-Forbes.275" edges="Ross-Fourth-Forbes Ross-Fourth-Forbes-2 Ross-Forbes-Fifth Ross-Fifth-Sixth Ross-Sixth-Seventh" />
<vehicle type="noVar" depart="53" id="Ross-Fourth-Forbes.275" route="route_Ross-Fourth-Forbes.275" />
<route id="route_Forbes-RHS-Ross.137" edges="Forbes-RHS-Ross Forbes-RHS-Ross-2 Forbes-Ross-Grant Forbes-Grant-WilliamPenn WilliamPenn-Forbes-Fourth" />
<vehicle type="noVar" depart="54" id="Forbes-RHS-Ross.137" route="route_Forbes-RHS-Ross.137" />
<route id="route_Ross-Seventh-Sixth.57" edges="Ross-Seventh-Sixth Ross-Seventh-Sixth-2 Sixth-Ross-RHS" />
<vehicle type="noVar" depart="57" id="Ross-Seventh-Sixth.57" route="route_Ross-Seventh-Sixth.57" />
<route id="route_Oliver-Smithfield-WilliamPenn.147" edges="Oliver-Smithfield-WilliamPenn Oliver-Smithfield-WilliamPenn-2 WilliamPenn-Oliver-Fifth WilliamPenn-Fifth-Forbes WilliamPenn-Forbes-Fourth" />
<vehicle type="noVar" depart="60" id="Oliver-Smithfield-WilliamPenn.147" route="route_Oliver-Smithfield-WilliamPenn.147" />
<route id="route_Sixth-RHS-Ross.58" edges="Sixth-RHS-Ross Sixth-RHS-Ross-2 Sixth-Ross-Grant Grant-Sixth-Seventh" />
<vehicle type="noVar" depart="65" id="Sixth-RHS-Ross.58" route="route_Sixth-RHS-Ross.58" />
<route id="route_Ross-Seventh-Sixth.184" edges="Ross-Seventh-Sixth Ross-Seventh-Sixth-2 Sixth-Ross-RHS" />
<vehicle type="noVar" depart="66" id="Ross-Seventh-Sixth.184" route="route_Ross-Seventh-Sixth.184" />
<route id="route_WilliamPenn-Seventh-Sixth.41" edges="WilliamPenn-Seventh-Sixth WilliamPenn-Seventh-Sixth-2 Sixth-WilliamPenn-Smithfield" />
<vehicle type="noVar" depart="67" id="WilliamPenn-Seventh-Sixth.41" route="route_WilliamPenn-Seventh-Sixth.41" />
<route id="route_Ross-Seventh-Sixth.116" edges="Ross-Seventh-Sixth Ross-Seventh-Sixth-2 Ross-Sixth-Fifth Ross-Fifth-Forbes Forbes-Ross-Grant Forbes-Grant-WilliamPenn WilliamPenn-Forbes-Fourth" />
<vehicle type="noVar" depart="69" id="Ross-Seventh-Sixth.116" route="route_Ross-Seventh-Sixth.116" />
<route id="route_Ross-Seventh-Sixth.264" edges="Ross-Seventh-Sixth Ross-Seventh-Sixth-2 Sixth-Ross-RHS" />
<vehicle type="noVar" depart="69" id="Ross-Seventh-Sixth.264" route="route_Ross-Seventh-Sixth.264" />
<route id="route_Oliver-Smithfield-WilliamPenn.168" edges="Oliver-Smithfield-WilliamPenn Oliver-Smithfield-WilliamPenn-2 Oliver-WilliamPenn-Grant Grant-Oliver-Sixth Grant-Sixth-Seventh" />
<vehicle type="noVar" depart="71" id="Oliver-Smithfield-WilliamPenn.168" route="route_Oliver-Smithfield-WilliamPenn.168" />
<route id="route_Forbes-RHS-Ross.245" edges="Forbes-RHS-Ross Forbes-RHS-Ross-2 Ross-Forbes-Fifth Ross-Fifth-Sixth Sixth-Ross-Grant Grant-Sixth-Seventh" />
<vehicle type="noVar" depart="72" id="Forbes-RHS-Ross.245" route="route_Forbes-RHS-Ross.245" />
<route id="route_Sixth-Smithfield-WilliamPenn.92" edges="Sixth-Smithfield-WilliamPenn Sixth-Smithfield-WilliamPenn-2 Sixth-WilliamPenn-Grant Sixth-Grant-Ross Sixth-Ross-RHS" />
<vehicle type="noVar" depart="75" id="Sixth-Smithfield-WilliamPenn.92" route="route_Sixth-Smithfield-WilliamPenn.92" />
<route id="route_Ross-Seventh-Sixth.60" edges="Ross-Seventh-Sixth Ross-Seventh-Sixth-2 Ross-Sixth-Fifth Ross-Fifth-Forbes Ross-Forbes-Fourth" />
<vehicle type="noVar" depart="77" id="Ross-Seventh-Sixth.60" route="route_Ross-Seventh-Sixth.60" />
<route id="route_Ross-Fourth-Forbes.155" edges="Ross-Fourth-Forbes Ross-Fourth-Forbes-2 Ross-Forbes-Fifth Ross-Fifth-Sixth Ross-Sixth-Seventh" />
<vehicle type="noVar" depart="79" id="Ross-Fourth-Forbes.155" route="route_Ross-Fourth-Forbes.155" />
<route id="route_Grant-Fourth-Forbes.283" edges="Grant-Fourth-Forbes Grant-Fourth-Forbes-2 Grant-Fourth-Forbes-3 Forbes-Grant-Ross Ross-Forbes-Fifth Fifth-Ross-RHS" />
<vehicle type="noVar" depart="81" id="Grant-Fourth-Forbes.283" route="route_Grant-Fourth-Forbes.283" />
<route id="route_Fifth-RHS-Ross.111" edges="Fifth-RHS-Ross Fifth-RHS-Ross-2 Fifth-Ross-Grant Fifth-Ross-Grant-2 Fifth-Grant-WilliamPenn Fifth-WilliamPenn-Smithfield" />
<vehicle type="noVar" depart="81" id="Fifth-RHS-Ross.111" route="route_Fifth-RHS-Ross.111" />
<route id="route_Ross-Seventh-Sixth.87" edges="Ross-Seventh-Sixth Ross-Seventh-Sixth-2 Ross-Sixth-Fifth Ross-Fifth-Forbes Forbes-Ross-Grant Grant-Forbes-Fourth" />
<vehicle type="noVar" depart="82" id="Ross-Seventh-Sixth.87" route="route_Ross-Seventh-Sixth.87" />
<route id="route_Ross-Fourth-Forbes.239" edges="Ross-Fourth-Forbes Ross-Fourth-Forbes-2 Forbes-Ross-RHS" />
<vehicle type="noVar" depart="82" id="Ross-Fourth-Forbes.239" route="route_Ross-Fourth-Forbes.239" />
<route id="route_WilliamPenn-Seventh-Sixth.134" edges="WilliamPenn-Seventh-Sixth WilliamPenn-Seventh-Sixth-2 WilliamPenn-Sixth-Oliver WilliamPenn-Oliver-Fifth WilliamPenn-Fifth-Forbes WilliamPenn-Forbes-Fourth" />
<vehicle type="noVar" depart="83" id="WilliamPenn-Seventh-Sixth.134" route="route_WilliamPenn-Seventh-Sixth.134" />
<route id="route_Ross-Seventh-Sixth.172" edges="Ross-Seventh-Sixth Ross-Seventh-Sixth-2 Sixth-Ross-Grant Grant-Sixth-Seventh" />
<vehicle type="noVar" depart="83" id="Ross-Seventh-Sixth.172" route="route_Ross-Seventh-Sixth.172" />
<route id="route_Grant-Seventh-Sixth.159" edges="Grant-Seventh-Sixth Grant-Seventh-Sixth-2 Sixth-Grant-Ross Ross-Sixth-Seventh" />
<vehicle type="noVar" depart="85" id="Grant-Seventh-Sixth.159" route="route_Grant-Seventh-Sixth.159" />
<route id="route_WilliamPenn-Seventh-Sixth.78" edges="WilliamPenn-Seventh-Sixth WilliamPenn-Seventh-Sixth-2 Sixth-WilliamPenn-Smithfield" />
<vehicle type="noVar" depart="86" id="WilliamPenn-Seventh-Sixth.78" route="route_WilliamPenn-Seventh-Sixth.78" />
<route id="route_Forbes-RHS-Ross.84" edges="Forbes-RHS-Ross Forbes-RHS-Ross-2 Ross-Forbes-Fourth" />
<vehicle type="noVar" depart="88" id="Forbes-RHS-Ross.84" route="route_Forbes-RHS-Ross.84" />
<route id="route_Grant-Seventh-Sixth.24" edges="Grant-Seventh-Sixth Grant-Seventh-Sixth-2 Sixth-Grant-Ross Ross-Sixth-Fifth Ross-Fifth-Forbes Forbes-Ross-Grant Grant-Forbes-Fourth" />
<vehicle type="noVar" depart="89" id="Grant-Seventh-Sixth.24" route="route_Grant-Seventh-Sixth.24" />
<route id="route_WilliamPenn-Seventh-Sixth.16" edges="WilliamPenn-Seventh-Sixth WilliamPenn-Seventh-Sixth-2 Sixth-WilliamPenn-Smithfield" />
<vehicle type="noVar" depart="90" id="WilliamPenn-Seventh-Sixth.16" route="route_WilliamPenn-Seventh-Sixth.16" />
<route id="route_WilliamPenn-Seventh-Sixth.104" edges="WilliamPenn-Seventh-Sixth WilliamPenn-Seventh-Sixth-2 Sixth-WilliamPenn-Grant Grant-Sixth-Seventh" />
<vehicle type="noVar" depart="90" id="WilliamPenn-Seventh-Sixth.104" route="route_WilliamPenn-Seventh-Sixth.104" />
<route id="route_Ross-Seventh-Sixth.6" edges="Ross-Seventh-Sixth Ross-Seventh-Sixth-2 Ross-Sixth-Fifth Ross-Fifth-Forbes Forbes-Ross-Grant Grant-Forbes-Fourth" />
<vehicle type="noVar" depart="91" id="Ross-Seventh-Sixth.6" route="route_Ross-Seventh-Sixth.6" />
<route id="route_Oliver-Smithfield-WilliamPenn.113" edges="Oliver-Smithfield-WilliamPenn Oliver-Smithfield-WilliamPenn-2 Oliver-WilliamPenn-Grant Grant-Oliver-Sixth Grant-Sixth-Seventh" />
<vehicle type="noVar" depart="92" id="Oliver-Smithfield-WilliamPenn.113" route="route_Oliver-Smithfield-WilliamPenn.113" />
<route id="route_Forbes-RHS-Ross.28" edges="Forbes-RHS-Ross Forbes-RHS-Ross-2 Ross-Forbes-Fourth" />
<vehicle type="noVar" depart="93" id="Forbes-RHS-Ross.28" route="route_Forbes-RHS-Ross.28" />
<route id="route_Ross-Fourth-Forbes.256" edges="Ross-Fourth-Forbes Ross-Fourth-Forbes-2 Forbes-Ross-Grant Forbes-Grant-WilliamPenn Forbes-WilliamPenn-Smithfield" />
<vehicle type="noVar" depart="93" id="Ross-Fourth-Forbes.256" route="route_Ross-Fourth-Forbes.256" />
<route id="route_Grant-Seventh-Sixth.317" edges="Grant-Seventh-Sixth Grant-Seventh-Sixth-2 Sixth-Grant-Ross Ross-Sixth-Fifth Ross-Fifth-Forbes Forbes-Ross-Grant Grant-Forbes-Fourth" />
<vehicle type="noVar" depart="95" id="Grant-Seventh-Sixth.317" route="route_Grant-Seventh-Sixth.317" />
<route id="route_Sixth-Smithfield-WilliamPenn.214" edges="Sixth-Smithfield-WilliamPenn Sixth-Smithfield-WilliamPenn-2 Sixth-WilliamPenn-Grant Sixth-Grant-Ross Ross-Sixth-Seventh" />
<vehicle type="noVar" depart="96" id="Sixth-Smithfield-WilliamPenn.214" route="route_Sixth-Smithfield-WilliamPenn.214" />
<route id="route_Grant-Fourth-Forbes.140" edges="Grant-Fourth-Forbes Grant-Fourth-Forbes-2 Grant-Fourth-Forbes-3 Grant-Forbes-Fifth Fifth-Grant-Ross Fifth-Grant-Ross-2 Ross-Fifth-Forbes Forbes-Ross-Grant Grant-Forbes-Fourth" />
<vehicle type="noVar" depart="100" id="Grant-Fourth-Forbes.140" route="route_Grant-Fourth-Forbes.140" />
<route id="route_Sixth-RHS-Ross.215" edges="Sixth-RHS-Ross Sixth-RHS-Ross-2 Sixth-Ross-Grant Grant-Sixth-Seventh" />
<vehicle type="noVar" depart="101" id="Sixth-RHS-Ross.215" route="route_Sixth-RHS-Ross.215" />
<route id="route_Grant-Fourth-Forbes.19" edges="Grant-Fourth-Forbes Grant-Fourth-Forbes-2 Grant-Fourth-Forbes-3 Forbes-Grant-Ross Ross-Forbes-Fourth" />
<vehicle type="noVar" depart="103" id="Grant-Fourth-Forbes.19" route="route_Grant-Fourth-Forbes.19" />
<route id="route_Ross-Fourth-Forbes.182" edges="Ross-Fourth-Forbes Ross-Fourth-Forbes-2 Ross-Forbes-Fifth Ross-Fifth-Sixth Ross-Sixth-Seventh" />
<vehicle type="noVar" depart="103" id="Ross-Fourth-Forbes.182" route="route_Ross-Fourth-Forbes.182" />
<route id="route_Fifth-Smithfield-WilliamPenn.24" edges="Fifth-Smithfield-WilliamPenn Fifth-Smithfield-WilliamPenn-2 Fifth-WilliamPenn-Grant Grant-Fifth-Oliver Grant-Oliver-Sixth Grant-Sixth-Seventh" />
<vehicle type="noVar" depart="104" id="Fifth-Smithfield-WilliamPenn.24" route="route_Fifth-Smithfield-WilliamPenn.24" />
<route id="route_Ross-Fourth-Forbes.234" edges="Ross-Fourth-Forbes Ross-Fourth-Forbes-2 Ross-Forbes-Fifth Ross-Fifth-Sixth Ross-Sixth-Seventh" />
<vehicle type="noVar" depart="104" id="Ross-Fourth-Forbes.234" route="route_Ross-Fourth-Forbes.234" />
<route id="route_Ross-Seventh-Sixth.96" edges="Ross-Seventh-Sixth Ross-Seventh-Sixth-2 Ross-Sixth-Fifth Fifth-Ross-Grant Fifth-Ross-Grant-2 Fifth-Grant-WilliamPenn Fifth-WilliamPenn-Smithfield" />
<vehicle type="noVar" depart="106" id="Ross-Seventh-Sixth.96" route="route_Ross-Seventh-Sixth.96" />
<route id="route_Ross-Seventh-Sixth.90" edges="Ross-Seventh-Sixth Ross-Seventh-Sixth-2 Ross-Sixth-Fifth Ross-Fifth-Forbes Ross-Forbes-Fourth" />
<vehicle type="noVar" depart="108" id="Ross-Seventh-Sixth.90" route="route_Ross-Seventh-Sixth.90" />
<route id="route_Forbes-RHS-Ross.233" edges="Forbes-RHS-Ross Forbes-RHS-Ross-2 Ross-Forbes-Fourth" />
<vehicle type="noVar" depart="108" id="Forbes-RHS-Ross.233" route="route_Forbes-RHS-Ross.233" />
<route id="route_Grant-Fourth-Forbes.252" edges="Grant-Fourth-Forbes Grant-Fourth-Forbes-2 Grant-Fourth-Forbes-3 Grant-Forbes-Fifth Grant-Fifth-Oliver Grant-Oliver-Sixth Grant-Sixth-Seventh" />
<vehicle type="noVar" depart="109" id="Grant-Fourth-Forbes.252" route="route_Grant-Fourth-Forbes.252" />
<route id="route_Sixth-Smithfield-WilliamPenn.208" edges="Sixth-Smithfield-WilliamPenn Sixth-Smithfield-WilliamPenn-2 Sixth-WilliamPenn-Grant Sixth-Grant-Ross Sixth-Ross-RHS" />
<vehicle type="noVar" depart="110" id="Sixth-Smithfield-WilliamPenn.208" route="route_Sixth-Smithfield-WilliamPenn.208" />
<route id="route_Sixth-RHS-Ross.170" edges="Sixth-RHS-Ross Sixth-RHS-Ross-2 Sixth-Ross-Grant Sixth-Grant-WilliamPenn WilliamPenn-Sixth-Oliver Oliver-WilliamPenn-Smithfield" />
<vehicle type="noVar" depart="110" id="Sixth-RHS-Ross.170" route="route_Sixth-RHS-Ross.170" />
<route id="route_Fifth-RHS-Ross.142" edges="Fifth-RHS-Ross Fifth-RHS-Ross-2 Ross-Fifth-Forbes Ross-Forbes-Fourth" />
<vehicle type="noVar" depart="110" id="Fifth-RHS-Ross.142" route="route_Fifth-RHS-Ross.142" />
<route id="route_Grant-Seventh-Sixth.140" edges="Grant-Seventh-Sixth Grant-Seventh-Sixth-2 Sixth-Grant-Ross Sixth-Ross-RHS" />
<vehicle type="noVar" depart="116" id="Grant-Seventh-Sixth.140" route="route_Grant-Seventh-Sixth.140" />
<route id="route_WilliamPenn-Seventh-Sixth.32" edges="WilliamPenn-Seventh-Sixth WilliamPenn-Seventh-Sixth-2 Sixth-WilliamPenn-Smithfield" />
<vehicle type="noVar" depart="116" id="WilliamPenn-Seventh-Sixth.32" route="route_WilliamPenn-Seventh-Sixth.32" />
<route id="route_Ross-Seventh-Sixth.239" edges="Ross-Seventh-Sixth Ross-Seventh-Sixth-2 Sixth-Ross-RHS" />
<vehicle type="noVar" depart="116" id="Ross-Seventh-Sixth.239" route="route_Ross-Seventh-Sixth.239" />
<route id="route_Forbes-RHS-Ross.66" edges="Forbes-RHS-Ross Forbes-RHS-Ross-2 Forbes-Ross-Grant Forbes-Grant-WilliamPenn WilliamPenn-Forbes-Fourth" />
<vehicle type="noVar" depart="116" id="Forbes-RHS-Ross.66" route="route_Forbes-RHS-Ross.66" />
<route id="route_Fifth-RHS-Ross.8" edges="Fifth-RHS-Ross Fifth-RHS-Ross-2 Ross-Fifth-Forbes Forbes-Ross-Grant Grant-Forbes-Fourth" />
<vehicle type="noVar" depart="117" id="Fifth-RHS-Ross.8" route="route_Fifth-RHS-Ross.8" />
<route id="route_Forbes-RHS-Ross.18" edges="Forbes-RHS-Ross Forbes-RHS-Ross-2 Forbes-Ross-Grant Grant-Forbes-Fourth" />
<vehicle type="noVar" depart="118" id="Forbes-RHS-Ross.18" route="route_Forbes-RHS-Ross.18" />
<route id="route_Grant-Seventh-Sixth.50" edges="Grant-Seventh-Sixth Grant-Seventh-Sixth-2 Sixth-Grant-WilliamPenn WilliamPenn-Sixth-Oliver WilliamPenn-Oliver-Fifth WilliamPenn-Fifth-Forbes WilliamPenn-Forbes-Fourth" />
<vehicle type="noVar" depart="119" id="Grant-Seventh-Sixth.50" route="route_Grant-Seventh-Sixth.50" />
<route id="route_Forbes-RHS-Ross.108" edges="Forbes-RHS-Ross Forbes-RHS-Ross-2 Ross-Forbes-Fourth" />
<vehicle type="noVar" depart="119" id="Forbes-RHS-Ross.108" route="route_Forbes-RHS-Ross.108" />
<route id="route_Ross-Fourth-Forbes.260" edges="Ross-Fourth-Forbes Ross-Fourth-Forbes-2 Ross-Forbes-Fifth Fifth-Ross-RHS" />
<vehicle type="noVar" depart="120" id="Ross-Fourth-Forbes.260" route="route_Ross-Fourth-Forbes.260" />
<route id="route_Ross-Fourth-Forbes.294" edges="Ross-Fourth-Forbes Ross-Fourth-Forbes-2 Ross-Forbes-Fifth Fifth-Ross-RHS" />
<vehicle type="noVar" depart="120" id="Ross-Fourth-Forbes.294" route="route_Ross-Fourth-Forbes.294" />