<?xml version="1.0" encoding="UTF-8"?>

<!-- generated on 2024-04-02 20:51:36 by Eclipse SUMO netedit Version 1.18.0
<configuration xmlns:xsi="http://www.w3.org/2001/XMLSchema-instance" xsi:noNamespaceSchemaLocation="http://sumo.dlr.de/xsd/neteditConfiguration.xsd">

    <input>
        <sumo-net-file value="/Users/davidneiman/Documents/GitHub.nosync/traffic-routing/surtrac_test/pittsburgh15intscollapsebad?.net.xml"/>
    </input>

    <output>
        <output-file value="/Users/davidneiman/Documents/GitHub.nosync/traffic-routing/surtrac_test/pittsburgh15intscollapsebad?.net.xml"/>
        <output.street-names value="true"/>
    </output>

    <processing>
        <geometry.min-radius.fix.railways value="false"/>
        <geometry.max-grade.fix value="false"/>
        <offset.disable-normalization value="true"/>
        <lefthand value="0"/>
    </processing>

    <junctions>
        <no-turnarounds value="true"/>
        <junctions.corner-detail value="5"/>
        <junctions.limit-turn-speed value="5.50"/>
        <rectangular-lane-cut value="0"/>
    </junctions>

    <pedestrian>
        <walkingareas value="0"/>
    </pedestrian>

</configuration>
-->

<net version="1.16" junctionCornerDetail="5" limitTurnSpeed="5.50" xmlns:xsi="http://www.w3.org/2001/XMLSchema-instance" xsi:noNamespaceSchemaLocation="http://sumo.dlr.de/xsd/net_file.xsd">

    <location netOffset="-584408.72,-4476613.85" convBoundary="330.58,196.10,889.88,712.09" origBoundary="-80.004731,40.435799,-79.988268,40.445849" projParameter="+proj=utm +zone=17 +ellps=WGS84 +datum=WGS84 +units=m +no_defs"/>

    <type id="highway.primary" priority="12" numLanes="2" speed="27.78" disallow="tram rail_urban rail rail_electric rail_fast ship" oneway="0"/>
    <type id="highway.residential" priority="3" numLanes="1" speed="13.89" disallow="tram rail_urban rail rail_electric rail_fast ship" oneway="0"/>
    <type id="highway.secondary" priority="11" numLanes="1" speed="27.78" disallow="tram rail_urban rail rail_electric rail_fast ship" oneway="0"/>
    <type id="highway.tertiary" priority="10" numLanes="1" speed="22.22" disallow="tram rail_urban rail rail_electric rail_fast ship" oneway="0"/>
    <type id="highway.trunk" priority="13" numLanes="2" speed="27.78" disallow="pedestrian bicycle tram rail_urban rail rail_electric rail_fast ship" oneway="0"/>

    <edge id=":104573441_0" function="internal">
        <lane id=":104573441_0_0" index="0" disallow="tram rail_urban rail rail_electric rail_fast ship" speed="3.65" length="4.67" shape="853.10,348.71 854.32,349.48 854.74,350.27 854.36,351.08 853.18,351.91"/>
    </edge>
    <edge id=":2013805640_0" function="internal">
        <lane id=":2013805640_0_0" index="0" disallow="tram rail_urban rail rail_electric rail_fast ship" speed="27.78" length="0.30" shape="814.62,454.69 814.51,454.41"/>
    </edge>
    <edge id=":2013805640_1" function="internal">
        <lane id=":2013805640_1_0" index="0" disallow="tram rail_urban rail rail_electric rail_fast ship" speed="27.78" length="0.29" shape="817.48,453.22 817.59,453.49"/>
    </edge>
    <edge id=":4459167069_0" function="internal">
        <lane id=":4459167069_0_0" index="0" disallow="tram rail_urban rail rail_electric rail_fast ship" speed="27.78" length="8.40" shape="726.83,373.37 724.82,374.88 723.90,376.53 722.98,378.18 720.97,379.69"/>
        <lane id=":4459167069_0_1" index="1" disallow="tram rail_urban rail rail_electric rail_fast ship" speed="27.78" length="8.40" shape="726.83,373.37 719.60,376.80"/>
    </edge>
    <edge id=":4459167069_2" function="internal">
        <lane id=":4459167069_2_0" index="0" disallow="tram rail_urban rail rail_electric rail_fast ship" speed="27.78" length="8.80" shape="716.86,371.01 719.30,370.41 721.16,370.75 723.02,371.08 725.46,370.48"/>
    </edge>
    <edge id=":9602381234_0" function="internal">
        <lane id=":9602381234_0_0" index="0" disallow="tram rail_urban rail rail_electric rail_fast ship" speed="11.18" length="8.21" shape="624.39,285.48 625.69,287.51 626.90,288.69 628.12,289.88 629.42,291.91"/>
        <lane id=":9602381234_0_1" index="1" disallow="tram rail_urban rail rail_electric rail_fast ship" speed="11.18" length="8.21" shape="621.53,286.91 622.83,288.94 624.05,290.13 625.26,291.31 626.56,293.34"/>
        <lane id=":9602381234_0_2" index="2" disallow="tram rail_urban rail rail_electric rail_fast ship" speed="11.18" length="8.21" shape="621.53,286.91 622.39,289.17 622.62,290.85 622.84,292.53 623.70,294.78"/>
    </edge>
    <edge id=":cluster_104472649_1362263119_684800917_8484285016_8484318434_8486322131_8486322133_0" function="internal">
        <lane id=":cluster_104472649_1362263119_684800917_8484285016_8484318434_8486322131_8486322133_0_0" index="0" disallow="pedestrian bicycle tram rail_urban rail rail_electric rail_fast ship" speed="8.28" length="13.86" shape="836.68,526.34 834.01,522.30 831.39,519.72 828.83,518.58 826.31,518.90"/>
    </edge>
    <edge id=":cluster_104472649_1362263119_684800917_8484285016_8484318434_8486322131_8486322133_1" function="internal">
        <lane id=":cluster_104472649_1362263119_684800917_8484285016_8484318434_8486322131_8486322133_1_0" index="0" disallow="pedestrian bicycle tram rail_urban rail rail_electric rail_fast ship" speed="27.78" length="27.56" shape="836.68,526.34 834.23,519.09 833.50,511.28 833.35,504.23 832.61,499.27"/>
    </edge>
    <edge id=":cluster_104472649_1362263119_684800917_8484285016_8484318434_8486322131_8486322133_2" function="internal">
        <lane id=":cluster_104472649_1362263119_684800917_8484285016_8484318434_8486322131_8486322133_2_0" index="0" disallow="pedestrian bicycle tram rail_urban rail rail_electric rail_fast ship" speed="10.21" length="12.80" shape="839.63,525.06 837.60,519.26 838.39,514.04 839.23,512.95"/>
    </edge>
    <edge id=":cluster_104472649_1362263119_684800917_8484285016_8484318434_8486322131_8486322133_15" function="internal">
        <lane id=":cluster_104472649_1362263119_684800917_8484285016_8484318434_8486322131_8486322133_15_0" index="0" disallow="pedestrian bicycle tram rail_urban rail rail_electric rail_fast ship" speed="10.21" length="12.13" shape="839.23,512.95 841.99,509.38 848.41,505.29"/>
    </edge>
    <edge id=":cluster_104472649_1362263119_684800917_8484285016_8484318434_8486322131_8486322133_3" function="internal">
        <lane id=":cluster_104472649_1362263119_684800917_8484285016_8484318434_8486322131_8486322133_3_0" index="0" disallow="pedestrian bicycle tram rail_urban rail rail_electric rail_fast ship" speed="7.18" length="11.20" shape="851.21,511.05 849.20,512.49 848.23,514.60 848.30,517.38 849.42,520.82"/>
    </edge>
    <edge id=":cluster_104472649_1362263119_684800917_8484285016_8484318434_8486322131_8486322133_4" function="internal">
        <lane id=":cluster_104472649_1362263119_684800917_8484285016_8484318434_8486322131_8486322133_4_0" index="0" disallow="tram rail_urban rail rail_electric rail_fast ship" speed="27.78" length="26.13" shape="851.21,511.05 844.10,513.70 837.05,515.76 830.86,517.42 826.31,518.90"/>
    </edge>
    <edge id=":cluster_104472649_1362263119_684800917_8484285016_8484318434_8486322131_8486322133_5" function="internal">
        <lane id=":cluster_104472649_1362263119_684800917_8484285016_8484318434_8486322131_8486322133_5_0" index="0" disallow="tram rail_urban rail rail_electric rail_fast ship" speed="9.77" length="2.45" shape="849.81,508.17 847.43,508.76"/>
    </edge>
    <edge id=":cluster_104472649_1362263119_684800917_8484285016_8484318434_8486322131_8486322133_16" function="internal">
        <lane id=":cluster_104472649_1362263119_684800917_8484285016_8484318434_8486322131_8486322133_16_0" index="0" disallow="tram rail_urban rail rail_electric rail_fast ship" speed="9.77" length="19.73" shape="847.43,508.76 844.40,509.52 839.73,508.49 835.80,505.07 832.61,499.27"/>
    </edge>
    <edge id=":cluster_104472649_1362263119_684800917_8484285016_8484318434_8486322131_8486322133_6" function="internal">
        <lane id=":cluster_104472649_1362263119_684800917_8484285016_8484318434_8486322131_8486322133_6_0" index="0" disallow="tram rail_urban rail rail_electric rail_fast ship" speed="7.11" length="11.58" shape="835.58,498.07 837.01,500.15 839.16,501.09 842.03,500.88 845.62,499.54"/>
    </edge>
    <edge id=":cluster_104472649_1362263119_684800917_8484285016_8484318434_8486322131_8486322133_7" function="internal">
        <lane id=":cluster_104472649_1362263119_684800917_8484285016_8484318434_8486322131_8486322133_7_0" index="0" disallow="pedestrian bicycle tram rail_urban rail rail_electric rail_fast ship" speed="27.78" length="26.52" shape="835.58,498.07 837.97,502.29 841.71,507.75 845.84,514.05 849.42,520.82"/>
        <lane id=":cluster_104472649_1362263119_684800917_8484285016_8484318434_8486322131_8486322133_7_1" index="1" disallow="pedestrian bicycle tram rail_urban rail rail_electric rail_fast ship" speed="27.78" length="26.52" shape="835.58,498.07 846.48,522.10"/>
    </edge>
    <edge id=":cluster_104472649_1362263119_684800917_8484285016_8484318434_8486322131_8486322133_9" function="internal">
        <lane id=":cluster_104472649_1362263119_684800917_8484285016_8484318434_8486322131_8486322133_9_0" index="0" disallow="tram rail_urban rail rail_electric rail_fast ship" speed="10.69" length="12.57" shape="835.58,498.07 837.20,504.82 836.22,510.37"/>
    </edge>
    <edge id=":cluster_104472649_1362263119_684800917_8484285016_8484318434_8486322131_8486322133_17" function="internal">
        <lane id=":cluster_104472649_1362263119_684800917_8484285016_8484318434_8486322131_8486322133_17_0" index="0" disallow="tram rail_urban rail rail_electric rail_fast ship" speed="10.69" length="13.35" shape="836.22,510.37 836.19,510.54 832.56,515.23 826.31,518.90"/>
    </edge>
    <edge id=":cluster_104472649_1362263119_684800917_8484285016_8484318434_8486322131_8486322133_10" function="internal">
        <lane id=":cluster_104472649_1362263119_684800917_8484285016_8484318434_8486322131_8486322133_10_0" index="0" disallow="tram rail_urban rail rail_electric rail_fast ship" speed="10.31" length="25.55" shape="827.09,520.85 832.16,517.97 834.77,513.42 834.92,507.19 832.61,499.27"/>
    </edge>
    <edge id=":cluster_104472649_1362263119_684800917_8484285016_8484318434_8486322131_8486322133_11" function="internal">
        <lane id=":cluster_104472649_1362263119_684800917_8484285016_8484318434_8486322131_8486322133_11_0" index="0" disallow="tram rail_urban rail rail_electric rail_fast ship" speed="27.78" length="27.51" shape="827.09,520.85 830.21,517.74 833.38,511.93 838.03,505.25 845.62,499.54"/>
        <lane id=":cluster_104472649_1362263119_684800917_8484285016_8484318434_8486322131_8486322133_11_1" index="1" disallow="tram rail_urban rail rail_electric rail_fast ship" speed="27.78" length="27.51" shape="827.09,520.85 830.50,518.15 834.26,513.28 839.42,507.58 847.02,502.41"/>
        <lane id=":cluster_104472649_1362263119_684800917_8484285016_8484318434_8486322131_8486322133_11_2" index="2" disallow="tram rail_urban rail rail_electric rail_fast ship" speed="27.78" length="27.51" shape="827.09,520.85 830.76,518.58 835.09,514.66 840.74,509.94 848.41,505.29"/>
    </edge>
    <edge id=":cluster_104472649_1362263119_684800917_8484285016_8484318434_8486322131_8486322133_14" function="internal">
        <lane id=":cluster_104472649_1362263119_684800917_8484285016_8484318434_8486322131_8486322133_14_0" index="0" disallow="pedestrian bicycle tram rail_urban rail rail_electric rail_fast ship" speed="9.96" length="8.31" shape="827.09,520.85 834.51,518.92 835.15,518.87"/>
    </edge>
    <edge id=":cluster_104472649_1362263119_684800917_8484285016_8484318434_8486322131_8486322133_18" function="internal">
        <lane id=":cluster_104472649_1362263119_684800917_8484285016_8484318434_8486322131_8486322133_18_0" index="0" disallow="pedestrian bicycle tram rail_urban rail rail_electric rail_fast ship" speed="9.96" length="12.62" shape="835.15,518.87 840.21,518.49 844.20,519.55 846.48,522.10"/>
    </edge>
    <edge id=":cluster_104572618_8484452947_8484452988_8484452989_8484452990_0" function="internal">
        <lane id=":cluster_104572618_8484452947_8484452988_8484452989_8484452990_0_0" index="0" disallow="tram rail_urban rail rail_electric rail_fast ship" speed="6.46" length="9.04" shape="598.52,623.32 596.45,624.70 595.33,626.40 595.17,628.43 595.96,630.78"/>
    </edge>
    <edge id=":cluster_104572618_8484452947_8484452988_8484452989_8484452990_1" function="internal">
        <lane id=":cluster_104572618_8484452947_8484452988_8484452989_8484452990_1_0" index="0" disallow="tram rail_urban rail rail_electric rail_fast ship" speed="22.22" length="14.49" shape="598.52,623.32 585.44,629.55"/>
    </edge>
    <edge id=":cluster_104572618_8484452947_8484452988_8484452989_8484452990_2" function="internal">
        <lane id=":cluster_104572618_8484452947_8484452988_8484452989_8484452990_2_0" index="0" disallow="tram rail_urban rail rail_electric rail_fast ship" speed="8.02" length="4.15" shape="598.52,623.32 594.76,624.50 594.55,624.48"/>
    </edge>
    <edge id=":cluster_104572618_8484452947_8484452988_8484452989_8484452990_10" function="internal">
        <lane id=":cluster_104572618_8484452947_8484452988_8484452989_8484452990_10_0" index="0" disallow="tram rail_urban rail rail_electric rail_fast ship" speed="8.02" length="10.18" shape="594.55,624.48 591.53,624.19 588.85,622.39 586.69,619.11"/>
    </edge>
    <edge id=":cluster_104572618_8484452947_8484452988_8484452989_8484452990_3" function="internal">
        <lane id=":cluster_104572618_8484452947_8484452988_8484452989_8484452990_3_0" index="0" disallow="tram rail_urban rail rail_electric rail_fast ship" speed="6.53" length="9.12" shape="589.59,617.75 590.95,619.82 592.66,620.95 594.72,621.14 597.13,620.39"/>
    </edge>
    <edge id=":cluster_104572618_8484452947_8484452988_8484452989_8484452990_4" function="internal">
        <lane id=":cluster_104572618_8484452947_8484452988_8484452989_8484452990_4_0" index="0" disallow="tram rail_urban rail rail_electric rail_fast ship" speed="11.18" length="14.74" shape="589.59,617.75 595.96,630.78"/>
        <lane id=":cluster_104572618_8484452947_8484452988_8484452989_8484452990_4_1" index="1" disallow="tram rail_urban rail rail_electric rail_fast ship" speed="11.18" length="14.74" shape="589.59,617.75 590.56,620.99 590.89,624.19 591.44,627.79 593.11,632.22"/>
    </edge>
    <edge id=":cluster_104572618_8484452947_8484452988_8484452989_8484452990_6" function="internal">
        <lane id=":cluster_104572618_8484452947_8484452988_8484452989_8484452990_6_0" index="0" disallow="tram rail_urban rail rail_electric rail_fast ship" speed="8.04" length="14.24" shape="589.59,617.75 590.74,621.50 590.43,624.71 588.66,627.40 585.44,629.55"/>
    </edge>
    <edge id=":cluster_104572618_8484452947_8484452988_8484452989_8484452990_7" function="internal">
        <lane id=":cluster_104572618_8484452947_8484452988_8484452989_8484452990_7_0" index="0" disallow="tram rail_urban rail rail_electric rail_fast ship" speed="6.56" length="9.12" shape="584.07,626.69 586.12,625.31 587.24,623.58 587.43,621.52 586.69,619.11"/>
    </edge>
    <edge id=":cluster_104572618_8484452947_8484452988_8484452989_8484452990_8" function="internal">
        <lane id=":cluster_104572618_8484452947_8484452988_8484452989_8484452990_8_0" index="0" disallow="tram rail_urban rail rail_electric rail_fast ship" speed="22.22" length="14.50" shape="584.07,626.69 597.13,620.39"/>
    </edge>
    <edge id=":cluster_104572618_8484452947_8484452988_8484452989_8484452990_9" function="internal">
        <lane id=":cluster_104572618_8484452947_8484452988_8484452989_8484452990_9_0" index="0" disallow="tram rail_urban rail rail_electric rail_fast ship" speed="7.41" length="2.51" shape="584.07,626.69 586.52,626.13"/>
    </edge>
    <edge id=":cluster_104572618_8484452947_8484452988_8484452989_8484452990_11" function="internal">
        <lane id=":cluster_104572618_8484452947_8484452988_8484452989_8484452990_11_0" index="0" disallow="tram rail_urban rail rail_electric rail_fast ship" speed="7.41" length="9.34" shape="586.52,626.13 588.84,626.86 591.04,628.89 593.11,632.22"/>
    </edge>
    <edge id=":cluster_104572636_8484443882_8484452939_8484452945_8484452946_0" function="internal">
        <lane id=":cluster_104572636_8484443882_8484452939_8484452945_8484452946_0_0" index="0" disallow="tram rail_urban rail rail_electric rail_fast ship" speed="9.08" length="17.86" shape="678.52,591.89 676.40,589.95 672.95,589.49 668.16,590.51 662.04,593.01"/>
    </edge>
    <edge id=":cluster_104572636_8484443882_8484452939_8484452945_8484452946_1" function="internal">
        <lane id=":cluster_104572636_8484443882_8484452939_8484452945_8484452946_1_0" index="0" disallow="tram rail_urban rail rail_electric rail_fast ship" speed="13.89" length="14.81" shape="678.52,591.89 671.41,578.90"/>
    </edge>
    <edge id=":cluster_104572636_8484443882_8484452939_8484452945_8484452946_2" function="internal">
        <lane id=":cluster_104572636_8484443882_8484452939_8484452945_8484452946_2_0" index="0" disallow="tram rail_urban rail rail_electric rail_fast ship" speed="7.34" length="12.19" shape="678.52,591.89 676.91,588.15 676.52,585.12 677.33,582.79 679.36,581.17"/>
    </edge>
    <edge id=":cluster_104572636_8484443882_8484452939_8484452945_8484452946_3" function="internal">
        <lane id=":cluster_104572636_8484443882_8484452939_8484452945_8484452946_3_0" index="0" disallow="tram rail_urban rail rail_electric rail_fast ship" speed="22.22" length="20.74" shape="680.84,584.24 662.04,593.01"/>
    </edge>
    <edge id=":cluster_104572636_8484443882_8484452939_8484452945_8484452946_4" function="internal">
        <lane id=":cluster_104572636_8484443882_8484452939_8484452945_8484452946_4_0" index="0" disallow="tram rail_urban rail rail_electric rail_fast ship" speed="7.56" length="2.96" shape="680.84,584.24 678.35,584.85 677.97,584.74"/>
    </edge>
    <edge id=":cluster_104572636_8484443882_8484452939_8484452945_8484452946_7" function="internal">
        <lane id=":cluster_104572636_8484443882_8484452939_8484452945_8484452946_7_0" index="0" disallow="tram rail_urban rail rail_electric rail_fast ship" speed="7.56" length="9.11" shape="677.97,584.74 675.95,584.16 673.64,582.17 671.41,578.90"/>
    </edge>
    <edge id=":cluster_104572636_8484443882_8484452939_8484452945_8484452946_5" function="internal">
        <lane id=":cluster_104572636_8484443882_8484452939_8484452945_8484452946_5_0" index="0" disallow="tram rail_urban rail rail_electric rail_fast ship" speed="8.52" length="17.08" shape="660.75,590.32 666.47,587.22 670.15,584.28 671.80,581.51 671.41,578.90"/>
    </edge>
    <edge id=":cluster_104572636_8484443882_8484452939_8484452945_8484452946_6" function="internal">
        <lane id=":cluster_104572636_8484443882_8484452939_8484452945_8484452946_6_0" index="0" disallow="tram rail_urban rail rail_electric rail_fast ship" speed="22.22" length="20.73" shape="660.75,590.32 679.36,581.17"/>
    </edge>
    <edge id=":cluster_104572642_4599846707_8484284983_8484443873_8484443874_8484443879_8484443880_8484443881_0" function="internal">
        <lane id=":cluster_104572642_4599846707_8484284983_8484443873_8484443874_8484443879_8484443880_8484443881_0_0" index="0" disallow="tram rail_urban rail rail_electric rail_fast ship" speed="6.96" length="10.45" shape="746.73,559.81 745.01,557.13 743.05,555.58 740.86,555.14 738.42,555.82"/>
    </edge>
    <edge id=":cluster_104572642_4599846707_8484284983_8484443873_8484443874_8484443879_8484443880_8484443881_1" function="internal">
        <lane id=":cluster_104572642_4599846707_8484284983_8484443873_8484443874_8484443879_8484443880_8484443881_1_0" index="0" disallow="tram rail_urban rail rail_electric rail_fast ship" speed="11.18" length="15.65" shape="746.73,559.81 739.70,545.84"/>
        <lane id=":cluster_104572642_4599846707_8484284983_8484443873_8484443874_8484443879_8484443880_8484443881_1_1" index="1" disallow="tram rail_urban rail rail_electric rail_fast ship" speed="11.18" length="15.65" shape="749.58,558.36 742.55,544.38"/>
    </edge>
    <edge id=":cluster_104572642_4599846707_8484284983_8484443873_8484443874_8484443879_8484443880_8484443881_3" function="internal">
        <lane id=":cluster_104572642_4599846707_8484284983_8484443873_8484443874_8484443879_8484443880_8484443881_3_0" index="0" disallow="tram rail_urban rail rail_electric rail_fast ship" speed="9.23" length="8.08" shape="749.58,558.36 748.37,553.78 749.26,550.56"/>
    </edge>
    <edge id=":cluster_104572642_4599846707_8484284983_8484443873_8484443874_8484443879_8484443880_8484443881_14" function="internal">
        <lane id=":cluster_104572642_4599846707_8484284983_8484443873_8484443874_8484443879_8484443880_8484443881_14_0" index="0" disallow="tram rail_urban rail rail_electric rail_fast ship" speed="9.23" length="12.39" shape="749.26,550.56 749.49,549.73 752.97,546.19 758.79,543.17"/>
    </edge>
    <edge id=":cluster_104572642_4599846707_8484284983_8484443873_8484443874_8484443879_8484443880_8484443881_4" function="internal">
        <lane id=":cluster_104572642_4599846707_8484284983_8484443873_8484443874_8484443879_8484443880_8484443881_4_0" index="0" disallow="tram rail_urban rail rail_electric rail_fast ship" speed="6.49" length="9.48" shape="760.11,546.52 757.97,547.83 756.83,549.57 756.72,551.73 757.62,554.31"/>
    </edge>
    <edge id=":cluster_104572642_4599846707_8484284983_8484443873_8484443874_8484443879_8484443880_8484443881_5" function="internal">
        <lane id=":cluster_104572642_4599846707_8484284983_8484443873_8484443874_8484443879_8484443880_8484443881_5_0" index="0" disallow="tram rail_urban rail rail_electric rail_fast ship" speed="25.00" length="23.60" shape="760.11,546.52 738.42,555.82"/>
    </edge>
    <edge id=":cluster_104572642_4599846707_8484284983_8484443873_8484443874_8484443879_8484443880_8484443881_6" function="internal">
        <lane id=":cluster_104572642_4599846707_8484284983_8484443873_8484443874_8484443879_8484443880_8484443881_6_0" index="0" disallow="tram rail_urban rail rail_electric rail_fast ship" speed="9.58" length="19.54" shape="760.11,546.52 753.93,548.51 748.94,548.81 745.14,547.44 742.55,544.38"/>
    </edge>
    <edge id=":cluster_104572642_4599846707_8484284983_8484443873_8484443874_8484443879_8484443880_8484443881_7" function="internal">
        <lane id=":cluster_104572642_4599846707_8484284983_8484443873_8484443874_8484443879_8484443880_8484443881_7_0" index="0" disallow="tram rail_urban rail rail_electric rail_fast ship" speed="6.95" length="9.75" shape="750.58,540.26 752.05,542.37 753.91,543.56 756.16,543.82 758.79,543.17"/>
    </edge>
    <edge id=":cluster_104572642_4599846707_8484284983_8484443873_8484443874_8484443879_8484443880_8484443881_8" function="internal">
        <lane id=":cluster_104572642_4599846707_8484284983_8484443873_8484443874_8484443879_8484443880_8484443881_8_0" index="0" disallow="tram rail_urban rail rail_electric rail_fast ship" speed="19.48" length="15.70" shape="750.58,540.26 757.62,554.31"/>
        <lane id=":cluster_104572642_4599846707_8484284983_8484443873_8484443874_8484443879_8484443880_8484443881_8_1" index="1" disallow="tram rail_urban rail rail_electric rail_fast ship" speed="19.48" length="15.70" shape="747.74,541.72 754.76,555.75"/>
    </edge>
    <edge id=":cluster_104572642_4599846707_8484284983_8484443873_8484443874_8484443879_8484443880_8484443881_10" function="internal">
        <lane id=":cluster_104572642_4599846707_8484284983_8484443873_8484443874_8484443879_8484443880_8484443881_10_0" index="0" disallow="tram rail_urban rail rail_electric rail_fast ship" speed="9.13" length="7.04" shape="747.74,541.72 748.59,545.49 747.54,548.48"/>
    </edge>
    <edge id=":cluster_104572642_4599846707_8484284983_8484443873_8484443874_8484443879_8484443880_8484443881_15" function="internal">
        <lane id=":cluster_104572642_4599846707_8484284983_8484443873_8484443874_8484443879_8484443880_8484443881_15_0" index="0" disallow="tram rail_urban rail rail_electric rail_fast ship" speed="9.13" length="11.90" shape="747.54,548.48 747.32,549.10 743.93,552.54 738.42,555.82"/>
    </edge>
    <edge id=":cluster_104572642_4599846707_8484284983_8484443873_8484443874_8484443879_8484443880_8484443881_11" function="internal">
        <lane id=":cluster_104572642_4599846707_8484284983_8484443873_8484443874_8484443879_8484443880_8484443881_11_0" index="0" disallow="tram rail_urban rail rail_electric rail_fast ship" speed="6.45" length="9.03" shape="737.19,553.30 739.25,551.92 740.36,550.21 740.51,548.19 739.70,545.84"/>
    </edge>
    <edge id=":cluster_104572642_4599846707_8484284983_8484443873_8484443874_8484443879_8484443880_8484443881_12" function="internal">
        <lane id=":cluster_104572642_4599846707_8484284983_8484443873_8484443874_8484443879_8484443880_8484443881_12_0" index="0" disallow="tram rail_urban rail rail_electric rail_fast ship" speed="25.00" length="23.86" shape="737.19,553.30 758.79,543.17"/>
    </edge>
    <edge id=":cluster_104572642_4599846707_8484284983_8484443873_8484443874_8484443879_8484443880_8484443881_13" function="internal">
        <lane id=":cluster_104572642_4599846707_8484284983_8484443873_8484443874_8484443879_8484443880_8484443881_13_0" index="0" disallow="tram rail_urban rail rail_electric rail_fast ship" speed="9.45" length="19.93" shape="737.19,553.30 743.22,551.08 748.15,550.75 752.00,552.31 754.76,555.75"/>
    </edge>
    <edge id=":cluster_104572699_3277882116_0" function="internal">
        <lane id=":cluster_104572699_3277882116_0_0" index="0" disallow="tram rail_urban rail rail_electric rail_fast ship" speed="3.65" length="4.67" shape="889.18,465.76 890.39,464.97 891.28,464.92 891.86,465.60 892.13,467.02"/>
    </edge>
    <edge id=":cluster_104945598_8484284971_8484443912_8484445225_0" function="internal">
        <lane id=":cluster_104945598_8484284971_8484443912_8484445225_0_0" index="0" disallow="tram rail_urban rail rail_electric rail_fast ship" speed="6.53" length="9.07" shape="556.94,366.86 555.56,364.81 553.84,363.69 551.80,363.51 549.42,364.25"/>
    </edge>
    <edge id=":cluster_104945598_8484284971_8484443912_8484445225_1" function="internal">
        <lane id=":cluster_104945598_8484284971_8484443912_8484445225_1_0" index="0" disallow="tram rail_urban rail rail_electric rail_fast ship" speed="13.89" length="17.61" shape="556.94,366.86 549.25,351.02"/>
    </edge>
    <edge id=":cluster_104945598_8484284971_8484443912_8484445225_2" function="internal">
        <lane id=":cluster_104945598_8484284971_8484443912_8484445225_2_0" index="0" disallow="tram rail_urban rail rail_electric rail_fast ship" speed="22.22" length="11.73" shape="558.09,356.56 555.26,358.47 553.76,360.41 552.25,362.35 549.42,364.25"/>
        <lane id=":cluster_104945598_8484284971_8484443912_8484445225_2_1" index="1" disallow="tram rail_urban rail rail_electric rail_fast ship" speed="22.22" length="11.73" shape="556.71,353.68 553.89,355.58 552.38,357.52 550.87,359.46 548.04,361.37"/>
    </edge>
    <edge id=":cluster_104945598_8484284971_8484443912_8484445225_4" function="internal">
        <lane id=":cluster_104945598_8484284971_8484443912_8484445225_4_0" index="0" disallow="tram rail_urban rail rail_electric rail_fast ship" speed="6.53" length="5.38" shape="556.71,353.68 554.38,354.40 552.36,354.20 551.60,353.70"/>
    </edge>
    <edge id=":cluster_104945598_8484284971_8484443912_8484445225_6" function="internal">
        <lane id=":cluster_104945598_8484284971_8484443912_8484445225_6_0" index="0" disallow="tram rail_urban rail rail_electric rail_fast ship" speed="6.53" length="3.63" shape="551.60,353.70 550.65,353.07 549.25,351.02"/>
    </edge>
    <edge id=":cluster_104945598_8484284971_8484443912_8484445225_5" function="internal">
        <lane id=":cluster_104945598_8484284971_8484443912_8484445225_5_0" index="0" disallow="tram rail_urban rail rail_electric rail_fast ship" speed="6.48" length="9.03" shape="546.66,358.48 548.73,357.10 549.85,355.40 550.02,353.37 549.25,351.02"/>
    </edge>
    <edge id=":cluster_105012331_5312909754_5312909756_8484445227_8484452927_0" function="internal">
        <lane id=":cluster_105012331_5312909754_5312909756_8484445227_8484452927_0_0" index="0" disallow="tram rail_urban rail rail_electric rail_fast ship" speed="6.95" length="9.89" shape="598.96,444.00 597.44,442.00 595.52,440.95 593.19,440.85 590.45,441.69"/>
    </edge>
    <edge id=":cluster_105012331_5312909754_5312909756_8484445227_8484452927_1" function="internal">
        <lane id=":cluster_105012331_5312909754_5312909756_8484445227_8484452927_1_0" index="0" disallow="tram rail_urban rail rail_electric rail_fast ship" speed="13.89" length="20.94" shape="598.96,444.00 589.01,425.58"/>
    </edge>
    <edge id=":cluster_105012331_5312909754_5312909756_8484445227_8484452927_2" function="internal">
        <lane id=":cluster_105012331_5312909754_5312909756_8484445227_8484452927_2_0" index="0" disallow="tram rail_urban rail rail_electric rail_fast ship" speed="8.01" length="14.70" shape="598.96,444.00 596.81,439.18 596.05,435.37 596.66,432.58 598.65,430.79"/>
    </edge>
    <edge id=":cluster_105012331_5312909754_5312909756_8484445227_8484452927_3" function="internal">
        <lane id=":cluster_105012331_5312909754_5312909756_8484445227_8484452927_3_0" index="0" disallow="tram rail_urban rail rail_electric rail_fast ship" speed="11.18" length="12.06" shape="601.40,436.54 590.45,441.69"/>
        <lane id=":cluster_105012331_5312909754_5312909756_8484445227_8484452927_3_1" index="1" disallow="tram rail_urban rail rail_electric rail_fast ship" speed="11.18" length="12.06" shape="600.02,433.65 589.15,438.76"/>
    </edge>