<?xml version="1.0" encoding="UTF-8"?>

<!-- generated on 2022-07-16 02:46:24 by Eclipse SUMO netedit Version 1.11.0
<configuration xmlns:xsi="http://www.w3.org/2001/XMLSchema-instance" xsi:noNamespaceSchemaLocation="http://sumo.dlr.de/xsd/netconvertConfiguration.xsd">

    <input>
        <sumo-net-file value="/Users/davidneiman/Documents/GitHub.nosync/traffic-routing/surtrac_test/pittsburghsmaller.net.xml"/>
    </input>

    <output>
        <output-file value="/Users/davidneiman/Documents/GitHub.nosync/traffic-routing/surtrac_test/pittsburghsmaller.net.xml"/>
        <output.street-names value="true"/>
    </output>

    <processing>
        <geometry.min-radius.fix.railways value="false"/>
        <geometry.max-grade.fix value="false"/>
        <offset.disable-normalization value="true"/>
        <lefthand value="false"/>
    </processing>

    <junctions>
        <no-turnarounds value="true"/>
        <junctions.corner-detail value="5"/>
        <junctions.limit-turn-speed value="5.5"/>
        <rectangular-lane-cut value="false"/>
    </junctions>

    <pedestrian>
        <walkingareas value="false"/>
    </pedestrian>

    <report>
        <aggregate-warnings value="5"/>
    </report>

</configuration>
-->

<net version="1.9" junctionCornerDetail="5" limitTurnSpeed="5.50" xmlns:xsi="http://www.w3.org/2001/XMLSchema-instance" xsi:noNamespaceSchemaLocation="http://sumo.dlr.de/xsd/net_file.xsd">

    <location netOffset="-584408.72,-4476613.85" convBoundary="481.98,196.10,889.88,660.08" origBoundary="-80.004731,40.435799,-79.988268,40.445849" projParameter="+proj=utm +zone=17 +ellps=WGS84 +datum=WGS84 +units=m +no_defs"/>

    <type id="highway.bridleway" priority="1" numLanes="1" speed="2.78" allow="pedestrian" oneway="1" width="2.00"/>
    <type id="highway.bus_guideway" priority="1" numLanes="1" speed="27.78" allow="bus" oneway="1"/>
    <type id="highway.cycleway" priority="1" numLanes="1" speed="8.33" allow="bicycle" oneway="0" width="1.00"/>
    <type id="highway.footway" priority="1" numLanes="1" speed="2.78" allow="pedestrian" oneway="1" width="2.00"/>
    <type id="highway.ford" priority="1" numLanes="1" speed="2.78" allow="army" oneway="0"/>
    <type id="highway.living_street" priority="2" numLanes="1" speed="2.78" disallow="tram rail_urban rail rail_electric rail_fast ship" oneway="0"/>
    <type id="highway.motorway" priority="14" numLanes="2" speed="39.44" allow="private emergency authority army vip passenger hov taxi bus coach delivery truck trailer motorcycle evehicle custom1 custom2" oneway="1"/>
    <type id="highway.motorway_link" priority="9" numLanes="1" speed="22.22" allow="private emergency authority army vip passenger hov taxi bus coach delivery truck trailer motorcycle evehicle custom1 custom2" oneway="1"/>
    <type id="highway.path" priority="1" numLanes="1" speed="2.78" allow="pedestrian bicycle" oneway="0" width="2.00"/>
    <type id="highway.pedestrian" priority="1" numLanes="1" speed="2.78" allow="pedestrian" oneway="1" width="2.00"/>
    <type id="highway.primary" priority="12" numLanes="2" speed="27.78" disallow="tram rail_urban rail rail_electric rail_fast ship" oneway="0"/>
    <type id="highway.primary_link" priority="7" numLanes="1" speed="22.22" disallow="tram rail_urban rail rail_electric rail_fast ship" oneway="0"/>
    <type id="highway.raceway" priority="15" numLanes="2" speed="83.33" allow="vip" oneway="0"/>
    <type id="highway.residential" priority="3" numLanes="1" speed="13.89" disallow="tram rail_urban rail rail_electric rail_fast ship" oneway="0"/>
    <type id="highway.secondary" priority="11" numLanes="1" speed="27.78" disallow="tram rail_urban rail rail_electric rail_fast ship" oneway="0"/>
    <type id="highway.secondary_link" priority="6" numLanes="1" speed="22.22" disallow="tram rail_urban rail rail_electric rail_fast ship" oneway="0"/>
    <type id="highway.service" priority="1" numLanes="1" speed="5.56" allow="pedestrian delivery bicycle" oneway="0"/>
    <type id="highway.stairs" priority="1" numLanes="1" speed="1.39" allow="pedestrian" oneway="1" width="2.00"/>
    <type id="highway.step" priority="1" numLanes="1" speed="1.39" allow="pedestrian" oneway="1" width="2.00"/>
    <type id="highway.steps" priority="1" numLanes="1" speed="1.39" allow="pedestrian" oneway="1" width="2.00"/>
    <type id="highway.tertiary" priority="10" numLanes="1" speed="22.22" disallow="tram rail_urban rail rail_electric rail_fast ship" oneway="0"/>
    <type id="highway.tertiary_link" priority="5" numLanes="1" speed="22.22" disallow="tram rail_urban rail rail_electric rail_fast ship" oneway="0"/>
    <type id="highway.track" priority="1" numLanes="1" speed="5.56" allow="pedestrian motorcycle moped bicycle" oneway="0"/>
    <type id="highway.trunk" priority="13" numLanes="2" speed="27.78" disallow="pedestrian bicycle tram rail_urban rail rail_electric rail_fast ship" oneway="0"/>
    <type id="highway.trunk_link" priority="8" numLanes="1" speed="22.22" disallow="pedestrian bicycle tram rail_urban rail rail_electric rail_fast ship" oneway="0"/>
    <type id="highway.unclassified" priority="4" numLanes="1" speed="13.89" disallow="tram rail_urban rail rail_electric rail_fast ship" oneway="0"/>
    <type id="highway.unsurfaced" priority="1" numLanes="1" speed="8.33" disallow="tram rail_urban rail rail_electric rail_fast ship" oneway="0"/>
    <type id="railway.highspeed" priority="21" numLanes="1" speed="69.44" allow="rail_fast" oneway="1"/>
    <type id="railway.light_rail" priority="19" numLanes="1" speed="27.78" allow="rail_urban" oneway="1"/>
    <type id="railway.preserved" priority="16" numLanes="1" speed="27.78" allow="rail" oneway="1"/>
    <type id="railway.rail" priority="20" numLanes="1" speed="44.44" allow="rail" oneway="1"/>
    <type id="railway.subway" priority="18" numLanes="1" speed="27.78" allow="rail_urban" oneway="1"/>
    <type id="railway.tram" priority="17" numLanes="1" speed="13.89" allow="tram" oneway="1"/>

    <edge id=":104572648_0" function="internal">
        <lane id=":104572648_0_0" index="0" disallow="pedestrian bicycle tram rail_urban rail rail_electric rail_fast ship" speed="12.71" length="10.27" shape="819.49,526.50 816.55,525.75 814.43,525.42 812.35,525.66 809.51,526.62"/>
    </edge>
    <edge id=":104572648_1" function="internal">
        <lane id=":104572648_1_0" index="0" disallow="pedestrian bicycle tram rail_urban rail rail_electric rail_fast ship" speed="6.07" length="13.06" shape="819.49,526.50 815.07,524.98 813.25,523.31 814.02,521.47 817.40,519.47"/>
    </edge>
    <edge id=":104572648_2" function="internal">
        <lane id=":104572648_2_0" index="0" disallow="tram rail_urban rail rail_electric rail_fast ship" speed="27.78" length="10.11" shape="818.70,522.40 809.51,526.62"/>
    </edge>
    <edge id=":104572648_3" function="internal">
        <lane id=":104572648_3_0" index="0" disallow="tram rail_urban rail rail_electric rail_fast ship" speed="27.78" length="9.97" shape="808.34,523.64 817.40,519.47"/>
    </edge>
    <edge id=":104573441_0" function="internal">
        <lane id=":104573441_0_0" index="0" disallow="tram rail_urban rail rail_electric rail_fast ship" speed="3.65" length="4.67" shape="853.10,348.71 854.32,349.48 854.74,350.27 854.36,351.08 853.18,351.91"/>
    </edge>
    <edge id=":4459167069_0" function="internal">
        <lane id=":4459167069_0_0" index="0" disallow="tram rail_urban rail rail_electric rail_fast ship" speed="27.78" length="8.40" shape="726.83,373.37 724.82,374.88 723.90,376.53 722.98,378.18 720.97,379.69"/>
        <lane id=":4459167069_0_1" index="1" disallow="tram rail_urban rail rail_electric rail_fast ship" speed="27.78" length="8.40" shape="726.83,373.37 719.60,376.80"/>
    </edge>
    <edge id=":4459167069_2" function="internal">
        <lane id=":4459167069_2_0" index="0" disallow="tram rail_urban rail rail_electric rail_fast ship" speed="27.78" length="8.80" shape="716.86,371.01 719.30,370.41 721.16,370.75 723.02,371.08 725.46,370.48"/>
    </edge>
    <edge id=":9602381234_0" function="internal">
        <lane id=":9602381234_0_0" index="0" disallow="tram rail_urban rail rail_electric rail_fast ship" speed="11.18" length="8.21" shape="624.39,285.48 625.69,287.51 626.90,288.69 628.12,289.88 629.42,291.91"/>
        <lane id=":9602381234_0_1" index="1" disallow="tram rail_urban rail rail_electric rail_fast ship" speed="11.18" length="8.21" shape="621.53,286.91 622.83,288.94 624.05,290.13 625.26,291.31 626.56,293.34"/>
        <lane id=":9602381234_0_2" index="2" disallow="tram rail_urban rail rail_electric rail_fast ship" speed="11.18" length="8.21" shape="621.53,286.91 622.39,289.17 622.62,290.85 622.84,292.53 623.70,294.78"/>
    </edge>
    <edge id=":cluster_104472649_1362263119_684800917_8484285016_8484318434_8486322131_8486322133_0" function="internal">
        <lane id=":cluster_104472649_1362263119_684800917_8484285016_8484318434_8486322131_8486322133_0_0" index="0" disallow="pedestrian bicycle tram rail_urban rail rail_electric rail_fast ship" speed="25.00" length="11.56" shape="836.68,526.34 841.31,536.93"/>
    </edge>
    <edge id=":cluster_104472649_1362263119_684800917_8484285016_8484318434_8486322131_8486322133_1" function="internal">
        <lane id=":cluster_104472649_1362263119_684800917_8484285016_8484318434_8486322131_8486322133_1_0" index="0" disallow="pedestrian bicycle tram rail_urban rail rail_electric rail_fast ship" speed="27.78" length="27.56" shape="836.68,526.34 834.23,519.09 833.50,511.28 833.35,504.23 832.61,499.27"/>
    </edge>
    <edge id=":cluster_104472649_1362263119_684800917_8484285016_8484318434_8486322131_8486322133_2" function="internal">
        <lane id=":cluster_104472649_1362263119_684800917_8484285016_8484318434_8486322131_8486322133_2_0" index="0" disallow="pedestrian bicycle tram rail_urban rail rail_electric rail_fast ship" speed="10.21" length="14.19" shape="839.63,525.06 837.60,519.26 838.39,514.04 840.08,511.85"/>
    </edge>
    <edge id=":cluster_104472649_1362263119_684800917_8484285016_8484318434_8486322131_8486322133_3" function="internal">
        <lane id=":cluster_104472649_1362263119_684800917_8484285016_8484318434_8486322131_8486322133_3_0" index="0" disallow="pedestrian bicycle tram rail_urban rail rail_electric rail_fast ship" speed="5.10" length="7.93" shape="839.63,525.06 840.23,521.75 841.58,520.15 843.66,520.27 843.99,520.48"/>
    </edge>
    <edge id=":cluster_104472649_1362263119_684800917_8484285016_8484318434_8486322131_8486322133_16" function="internal">
        <lane id=":cluster_104472649_1362263119_684800917_8484285016_8484318434_8486322131_8486322133_16_0" index="0" disallow="pedestrian bicycle tram rail_urban rail rail_electric rail_fast ship" speed="10.21" length="10.74" shape="840.08,511.85 841.99,509.38 848.41,505.29"/>
    </edge>
    <edge id=":cluster_104472649_1362263119_684800917_8484285016_8484318434_8486322131_8486322133_17" function="internal">
        <lane id=":cluster_104472649_1362263119_684800917_8484285016_8484318434_8486322131_8486322133_17_0" index="0" disallow="pedestrian bicycle tram rail_urban rail rail_electric rail_fast ship" speed="5.10" length="2.96" shape="843.99,520.48 846.48,522.10"/>
    </edge>
    <edge id=":cluster_104472649_1362263119_684800917_8484285016_8484318434_8486322131_8486322133_4" function="internal">
        <lane id=":cluster_104472649_1362263119_684800917_8484285016_8484318434_8486322131_8486322133_4_0" index="0" disallow="pedestrian bicycle tram rail_urban rail rail_electric rail_fast ship" speed="7.18" length="11.20" shape="851.21,511.05 849.20,512.49 848.23,514.60 848.30,517.38 849.42,520.82"/>
    </edge>
    <edge id=":cluster_104472649_1362263119_684800917_8484285016_8484318434_8486322131_8486322133_5" function="internal">
        <lane id=":cluster_104472649_1362263119_684800917_8484285016_8484318434_8486322131_8486322133_5_0" index="0" disallow="tram rail_urban rail rail_electric rail_fast ship" speed="27.78" length="21.86" shape="851.21,511.05 844.72,513.42 839.02,514.89 834.19,515.98 830.28,517.24"/>
    </edge>
    <edge id=":cluster_104472649_1362263119_684800917_8484285016_8484318434_8486322131_8486322133_6" function="internal">
        <lane id=":cluster_104472649_1362263119_684800917_8484285016_8484318434_8486322131_8486322133_6_0" index="0" disallow="tram rail_urban rail rail_electric rail_fast ship" speed="9.77" length="22.18" shape="849.81,508.17 844.40,509.52 839.73,508.49 835.80,505.07 832.61,499.27"/>
    </edge>
    <edge id=":cluster_104472649_1362263119_684800917_8484285016_8484318434_8486322131_8486322133_7" function="internal">
        <lane id=":cluster_104472649_1362263119_684800917_8484285016_8484318434_8486322131_8486322133_7_0" index="0" disallow="tram rail_urban rail rail_electric rail_fast ship" speed="3.67" length="4.67" shape="849.81,508.17 848.38,507.98 847.67,507.43 847.68,506.54 848.41,505.29"/>
    </edge>
    <edge id=":cluster_104472649_1362263119_684800917_8484285016_8484318434_8486322131_8486322133_8" function="internal">
        <lane id=":cluster_104472649_1362263119_684800917_8484285016_8484318434_8486322131_8486322133_8_0" index="0" disallow="tram rail_urban rail rail_electric rail_fast ship" speed="7.11" length="11.58" shape="835.58,498.07 837.01,500.15 839.16,501.09 842.03,500.88 845.62,499.54"/>
    </edge>
    <edge id=":cluster_104472649_1362263119_684800917_8484285016_8484318434_8486322131_8486322133_9" function="internal">
        <lane id=":cluster_104472649_1362263119_684800917_8484285016_8484318434_8486322131_8486322133_9_0" index="0" disallow="pedestrian bicycle tram rail_urban rail rail_electric rail_fast ship" speed="27.78" length="26.38" shape="835.58,498.07 846.48,522.10"/>
    </edge>
    <edge id=":cluster_104472649_1362263119_684800917_8484285016_8484318434_8486322131_8486322133_10" function="internal">
        <lane id=":cluster_104472649_1362263119_684800917_8484285016_8484318434_8486322131_8486322133_10_0" index="0" disallow="tram rail_urban rail rail_electric rail_fast ship" speed="10.06" length="15.92" shape="835.58,498.07 837.41,504.62 837.13,509.99 835.29,513.25"/>
    </edge>
    <edge id=":cluster_104472649_1362263119_684800917_8484285016_8484318434_8486322131_8486322133_11" function="internal">
        <lane id=":cluster_104472649_1362263119_684800917_8484285016_8484318434_8486322131_8486322133_11_0" index="0" disallow="tram rail_urban rail rail_electric rail_fast ship" speed="3.65" length="2.68" shape="835.58,498.07 835.29,499.49 834.70,500.16 834.36,500.13"/>
    </edge>
    <edge id=":cluster_104472649_1362263119_684800917_8484285016_8484318434_8486322131_8486322133_18" function="internal">
        <lane id=":cluster_104472649_1362263119_684800917_8484285016_8484318434_8486322131_8486322133_18_0" index="0" disallow="tram rail_urban rail rail_electric rail_fast ship" speed="10.06" length="6.50" shape="835.29,513.25 834.76,514.20 830.28,517.24"/>
    </edge>
    <edge id=":cluster_104472649_1362263119_684800917_8484285016_8484318434_8486322131_8486322133_19" function="internal">
        <lane id=":cluster_104472649_1362263119_684800917_8484285016_8484318434_8486322131_8486322133_19_0" index="0" disallow="tram rail_urban rail rail_electric rail_fast ship" speed="3.65" length="2.00" shape="834.36,500.13 833.81,500.08 832.61,499.27"/>
    </edge>
    <edge id=":cluster_104472649_1362263119_684800917_8484285016_8484318434_8486322131_8486322133_12" function="internal">
        <lane id=":cluster_104472649_1362263119_684800917_8484285016_8484318434_8486322131_8486322133_12_0" index="0" disallow="tram rail_urban rail rail_electric rail_fast ship" speed="8.92" length="17.41" shape="828.98,514.32 832.29,512.00 834.00,508.73 834.11,504.48 832.61,499.27"/>
    </edge>
    <edge id=":cluster_104472649_1362263119_684800917_8484285016_8484318434_8486322131_8486322133_13" function="internal">
        <lane id=":cluster_104472649_1362263119_684800917_8484285016_8484318434_8486322131_8486322133_13_0" index="0" disallow="tram rail_urban rail rail_electric rail_fast ship" speed="27.78" length="21.65" shape="828.98,514.32 832.36,512.26 836.07,509.37 840.74,505.98 847.02,502.41"/>
    </edge>
    <edge id=":cluster_104472649_1362263119_684800917_8484285016_8484318434_8486322131_8486322133_14" function="internal">
        <lane id=":cluster_104472649_1362263119_684800917_8484285016_8484318434_8486322131_8486322133_14_0" index="0" disallow="pedestrian bicycle tram rail_urban rail rail_electric rail_fast ship" speed="9.78" length="21.88" shape="828.98,514.32 834.52,512.83 839.28,513.62 843.27,516.71 846.48,522.10"/>
    </edge>
    <edge id=":cluster_104472649_1362263119_684800917_8484285016_8484318434_8486322131_8486322133_15" function="internal">
        <lane id=":cluster_104472649_1362263119_684800917_8484285016_8484318434_8486322131_8486322133_15_0" index="0" disallow="tram rail_urban rail rail_electric rail_fast ship" speed="3.65" length="4.67" shape="828.98,514.32 830.40,514.56 831.09,515.13 831.05,516.02 830.28,517.24"/>
    </edge>
    <edge id=":cluster_104572618_8484452947_8484452988_8484452989_8484452990_0" function="internal">
        <lane id=":cluster_104572618_8484452947_8484452988_8484452989_8484452990_0_0" index="0" disallow="tram rail_urban rail rail_electric rail_fast ship" speed="3.65" length="4.67" shape="592.23,626.29 590.80,626.09 590.10,625.54 590.11,624.64 590.85,623.40"/>
    </edge>
    <edge id=":cluster_104572636_8484443882_8484452939_8484452945_8484452946_0" function="internal">
        <lane id=":cluster_104572636_8484443882_8484452939_8484452945_8484452946_0_0" index="0" disallow="tram rail_urban rail rail_electric rail_fast ship" speed="7.36" length="11.37" shape="678.52,591.89 676.82,589.76 674.60,588.72 671.86,588.76 668.59,589.89"/>
    </edge>
    <edge id=":cluster_104572636_8484443882_8484452939_8484452945_8484452946_1" function="internal">
        <lane id=":cluster_104572636_8484443882_8484452939_8484452945_8484452946_1_0" index="0" disallow="tram rail_urban rail rail_electric rail_fast ship" speed="13.89" length="14.98" shape="678.52,591.89 671.33,578.75"/>
    </edge>
    <edge id=":cluster_104572636_8484443882_8484452939_8484452945_8484452946_2" function="internal">
        <lane id=":cluster_104572636_8484443882_8484452939_8484452945_8484452946_2_0" index="0" disallow="tram rail_urban rail rail_electric rail_fast ship" speed="7.34" length="12.15" shape="678.52,591.89 676.92,588.16 676.52,585.14 677.31,582.81 679.31,581.19"/>
    </edge>
    <edge id=":cluster_104572636_8484443882_8484452939_8484452945_8484452946_3" function="internal">
        <lane id=":cluster_104572636_8484443882_8484452939_8484452945_8484452946_3_0" index="0" disallow="tram rail_urban rail rail_electric rail_fast ship" speed="22.22" length="13.46" shape="680.72,584.06 668.59,589.89"/>
    </edge>
    <edge id=":cluster_104572636_8484443882_8484452939_8484452945_8484452946_4" function="internal">
        <lane id=":cluster_104572636_8484443882_8484452939_8484452945_8484452946_4_0" index="0" disallow="tram rail_urban rail rail_electric rail_fast ship" speed="7.55" length="4.16" shape="680.72,584.06 678.24,584.66 676.70,584.22"/>
    </edge>
    <edge id=":cluster_104572636_8484443882_8484452939_8484452945_8484452946_5" function="internal">
        <lane id=":cluster_104572636_8484443882_8484452939_8484452945_8484452946_5_0" index="0" disallow="tram rail_urban rail rail_electric rail_fast ship" speed="3.65" length="2.34" shape="680.72,584.06 679.29,583.87 678.58,583.33"/>
    </edge>
    <edge id=":cluster_104572636_8484443882_8484452939_8484452945_8484452946_9" function="internal">
        <lane id=":cluster_104572636_8484443882_8484452939_8484452945_8484452946_9_0" index="0" disallow="tram rail_urban rail rail_electric rail_fast ship" speed="7.55" length="7.85" shape="676.70,584.22 675.84,583.97 673.54,582.00 671.33,578.75"/>
    </edge>
    <edge id=":cluster_104572636_8484443882_8484452939_8484452945_8484452946_10" function="internal">
        <lane id=":cluster_104572636_8484443882_8484452939_8484452945_8484452946_10_0" index="0" disallow="tram rail_urban rail rail_electric rail_fast ship" speed="3.65" length="2.34" shape="678.58,583.33 678.59,582.43 679.31,581.19"/>
    </edge>
    <edge id=":cluster_104572636_8484443882_8484452939_8484452945_8484452946_6" function="internal">
        <lane id=":cluster_104572636_8484443882_8484452939_8484452945_8484452946_6_0" index="0" disallow="tram rail_urban rail rail_electric rail_fast ship" speed="6.84" length="10.59" shape="667.23,586.99 670.06,585.26 671.69,583.31 672.11,581.14 671.33,578.75"/>
    </edge>
    <edge id=":cluster_104572636_8484443882_8484452939_8484452945_8484452946_7" function="internal">
        <lane id=":cluster_104572636_8484443882_8484452939_8484452945_8484452946_7_0" index="0" disallow="tram rail_urban rail rail_electric rail_fast ship" speed="22.22" length="13.41" shape="667.23,586.99 679.31,581.19"/>
    </edge>
    <edge id=":cluster_104572636_8484443882_8484452939_8484452945_8484452946_8" function="internal">
        <lane id=":cluster_104572636_8484443882_8484452939_8484452945_8484452946_8_0" index="0" disallow="tram rail_urban rail rail_electric rail_fast ship" speed="3.65" length="2.34" shape="667.23,586.99 668.65,587.20 669.36,587.76"/>
    </edge>
    <edge id=":cluster_104572636_8484443882_8484452939_8484452945_8484452946_11" function="internal">
        <lane id=":cluster_104572636_8484443882_8484452939_8484452945_8484452946_11_0" index="0" disallow="tram rail_urban rail rail_electric rail_fast ship" speed="3.65" length="2.34" shape="669.36,587.76 669.34,588.65 668.59,589.89"/>
    </edge>
    <edge id=":cluster_104572642_4599846707_8484284983_8484443873_8484443874_8484443879_8484443880_8484443881_0" function="internal">
        <lane id=":cluster_104572642_4599846707_8484284983_8484443873_8484443874_8484443879_8484443880_8484443881_0_0" index="0" disallow="tram rail_urban rail rail_electric rail_fast ship" speed="6.97" length="10.45" shape="746.73,559.81 745.01,557.13 743.05,555.58 740.85,555.14 738.41,555.83"/>
    </edge>
    <edge id=":cluster_104572642_4599846707_8484284983_8484443873_8484443874_8484443879_8484443880_8484443881_1" function="internal">
        <lane id=":cluster_104572642_4599846707_8484284983_8484443873_8484443874_8484443879_8484443880_8484443881_1_0" index="0" disallow="tram rail_urban rail rail_electric rail_fast ship" speed="11.18" length="16.06" shape="746.73,559.81 739.51,545.47"/>
        <lane id=":cluster_104572642_4599846707_8484284983_8484443873_8484443874_8484443879_8484443880_8484443881_1_1" index="1" disallow="tram rail_urban rail rail_electric rail_fast ship" speed="11.18" length="16.06" shape="749.58,558.36 742.36,544.01"/>
    </edge>
    <edge id=":cluster_104572642_4599846707_8484284983_8484443873_8484443874_8484443879_8484443880_8484443881_3" function="internal">
        <lane id=":cluster_104572642_4599846707_8484284983_8484443873_8484443874_8484443879_8484443880_8484443881_3_0" index="0" disallow="tram rail_urban rail rail_electric rail_fast ship" speed="9.22" length="9.39" shape="749.58,558.36 748.36,553.79 749.48,549.73 749.80,549.41"/>
    </edge>
    <edge id=":cluster_104572642_4599846707_8484284983_8484443873_8484443874_8484443879_8484443880_8484443881_4" function="internal">
        <lane id=":cluster_104572642_4599846707_8484284983_8484443873_8484443874_8484443879_8484443880_8484443881_4_0" index="0" disallow="tram rail_urban rail rail_electric rail_fast ship" speed="4.54" length="5.70" shape="749.58,558.36 749.90,555.77 750.87,554.47 752.33,554.46"/>
    </edge>
    <edge id=":cluster_104572642_4599846707_8484284983_8484443873_8484443874_8484443879_8484443880_8484443881_18" function="internal">
        <lane id=":cluster_104572642_4599846707_8484284983_8484443873_8484443874_8484443879_8484443880_8484443881_18_0" index="0" disallow="tram rail_urban rail rail_electric rail_fast ship" speed="9.22" length="11.04" shape="749.80,549.41 752.95,546.20 758.75,543.19"/>
    </edge>
    <edge id=":cluster_104572642_4599846707_8484284983_8484443873_8484443874_8484443879_8484443880_8484443881_19" function="internal">
        <lane id=":cluster_104572642_4599846707_8484284983_8484443873_8484443874_8484443879_8484443880_8484443881_19_0" index="0" disallow="tram rail_urban rail rail_electric rail_fast ship" speed="4.54" length="2.77" shape="752.33,554.46 752.49,554.46 754.76,555.75"/>
    </edge>
    <edge id=":cluster_104572642_4599846707_8484284983_8484443873_8484443874_8484443879_8484443880_8484443881_5" function="internal">
        <lane id=":cluster_104572642_4599846707_8484284983_8484443873_8484443874_8484443879_8484443880_8484443881_5_0" index="0" disallow="tram rail_urban rail rail_electric rail_fast ship" speed="6.56" length="9.85" shape="759.93,546.16 757.77,547.46 756.67,549.25 756.62,551.54 757.62,554.31"/>
    </edge>
    <edge id=":cluster_104572642_4599846707_8484284983_8484443873_8484443874_8484443879_8484443880_8484443881_6" function="internal">
        <lane id=":cluster_104572642_4599846707_8484284983_8484443873_8484443874_8484443879_8484443880_8484443881_6_0" index="0" disallow="tram rail_urban rail rail_electric rail_fast ship" speed="25.00" length="23.58" shape="759.93,546.16 738.41,555.83"/>
    </edge>
    <edge id=":cluster_104572642_4599846707_8484284983_8484443873_8484443874_8484443879_8484443880_8484443881_7" function="internal">
        <lane id=":cluster_104572642_4599846707_8484284983_8484443873_8484443874_8484443879_8484443880_8484443881_7_0" index="0" disallow="tram rail_urban rail rail_electric rail_fast ship" speed="9.63" length="8.65" shape="759.93,546.16 753.69,548.05 751.56,548.17"/>
    </edge>
    <edge id=":cluster_104572642_4599846707_8484284983_8484443873_8484443874_8484443879_8484443880_8484443881_8" function="internal">
        <lane id=":cluster_104572642_4599846707_8484284983_8484443873_8484443874_8484443879_8484443880_8484443881_8_0" index="0" disallow="tram rail_urban rail rail_electric rail_fast ship" speed="3.65" length="2.34" shape="759.93,546.16 758.52,545.86 757.85,545.26"/>
    </edge>
    <edge id=":cluster_104572642_4599846707_8484284983_8484443873_8484443874_8484443879_8484443880_8484443881_20" function="internal">
        <lane id=":cluster_104572642_4599846707_8484284983_8484443873_8484443874_8484443879_8484443880_8484443881_20_0" index="0" disallow="tram rail_urban rail rail_electric rail_fast ship" speed="9.63" length="10.80" shape="751.56,548.17 748.68,548.32 744.91,546.98 742.36,544.01"/>
    </edge>
    <edge id=":cluster_104572642_4599846707_8484284983_8484443873_8484443874_8484443879_8484443880_8484443881_21" function="internal">
        <lane id=":cluster_104572642_4599846707_8484284983_8484443873_8484443874_8484443879_8484443880_8484443881_21_0" index="0" disallow="tram rail_urban rail rail_electric rail_fast ship" speed="3.65" length="2.34" shape="757.85,545.26 757.93,544.37 758.75,543.19"/>
    </edge>
    <edge id=":cluster_104572642_4599846707_8484284983_8484443873_8484443874_8484443879_8484443880_8484443881_9" function="internal">
        <lane id=":cluster_104572642_4599846707_8484284983_8484443873_8484443874_8484443879_8484443880_8484443881_9_0" index="0" disallow="tram rail_urban rail rail_electric rail_fast ship" speed="7.04" length="10.05" shape="750.40,539.89 751.95,542.16 753.86,543.47 756.12,543.81 758.75,543.19"/>
    </edge>
    <edge id=":cluster_104572642_4599846707_8484284983_8484443873_8484443874_8484443879_8484443880_8484443881_10" function="internal">
        <lane id=":cluster_104572642_4599846707_8484284983_8484443873_8484443874_8484443879_8484443880_8484443881_10_0" index="0" disallow="tram rail_urban rail rail_electric rail_fast ship" speed="19.48" length="16.11" shape="750.40,539.89 757.62,554.31"/>
        <lane id=":cluster_104572642_4599846707_8484284983_8484443873_8484443874_8484443879_8484443880_8484443881_10_1" index="1" disallow="tram rail_urban rail rail_electric rail_fast ship" speed="19.48" length="16.11" shape="747.55,541.35 754.76,555.75"/>
    </edge>
    <edge id=":cluster_104572642_4599846707_8484284983_8484443873_8484443874_8484443879_8484443880_8484443881_12" function="internal">
        <lane id=":cluster_104572642_4599846707_8484284983_8484443873_8484443874_8484443879_8484443880_8484443881_12_0" index="0" disallow="tram rail_urban rail rail_electric rail_fast ship" speed="9.20" length="8.53" shape="747.55,541.35 748.49,545.28 747.27,549.01 746.88,549.42"/>
    </edge>
    <edge id=":cluster_104572642_4599846707_8484284983_8484443873_8484443874_8484443879_8484443880_8484443881_13" function="internal">
        <lane id=":cluster_104572642_4599846707_8484284983_8484443873_8484443874_8484443879_8484443880_8484443881_13_0" index="0" disallow="tram rail_urban rail rail_electric rail_fast ship" speed="4.55" length="5.75" shape="747.55,541.35 747.25,543.96 746.28,545.28 744.79,545.29"/>
    </edge>
    <edge id=":cluster_104572642_4599846707_8484284983_8484443873_8484443874_8484443879_8484443880_8484443881_22" function="internal">
        <lane id=":cluster_104572642_4599846707_8484284983_8484443873_8484443874_8484443879_8484443880_8484443881_22_0" index="0" disallow="tram rail_urban rail rail_electric rail_fast ship" speed="9.20" length="10.70" shape="746.88,549.42 743.92,552.52 738.41,555.83"/>
    </edge>
    <edge id=":cluster_104572642_4599846707_8484284983_8484443873_8484443874_8484443879_8484443880_8484443881_23" function="internal">
        <lane id=":cluster_104572642_4599846707_8484284983_8484443873_8484443874_8484443879_8484443880_8484443881_23_0" index="0" disallow="tram rail_urban rail rail_electric rail_fast ship" speed="4.55" length="2.77" shape="744.79,545.29 744.65,545.29 742.36,544.01"/>
    </edge>
    <edge id=":cluster_104572642_4599846707_8484284983_8484443873_8484443874_8484443879_8484443880_8484443881_14" function="internal">