<?xml version="1.0" encoding="UTF-8"?>

<!-- generated on 2022-07-14 15:08:13 by Eclipse SUMO netedit Version 1.11.0
<configuration xmlns:xsi="http://www.w3.org/2001/XMLSchema-instance" xsi:noNamespaceSchemaLocation="http://sumo.dlr.de/xsd/netconvertConfiguration.xsd">

    <input>
        <sumo-net-file value="/Users/davidneiman/Desktop/pittsburgh2.net.xml"/>
    </input>

    <output>
        <output-file value="/Users/davidneiman/Desktop/pittsburgh2.net.xml"/>
        <output.street-names value="true"/>
    </output>

    <processing>
        <geometry.min-radius.fix.railways value="false"/>
        <geometry.max-grade.fix value="false"/>
        <offset.disable-normalization value="true"/>
        <lefthand value="false"/>
    </processing>

    <junctions>
        <no-turnarounds value="true"/>
        <junctions.corner-detail value="5"/>
        <junctions.limit-turn-speed value="5.5"/>
        <rectangular-lane-cut value="false"/>
    </junctions>

    <pedestrian>
        <walkingareas value="false"/>
    </pedestrian>

    <report>
        <aggregate-warnings value="5"/>
    </report>

</configuration>
-->

<net version="1.9" junctionCornerDetail="5" limitTurnSpeed="5.50" xmlns:xsi="http://www.w3.org/2001/XMLSchema-instance" xsi:noNamespaceSchemaLocation="http://sumo.dlr.de/xsd/net_file.xsd">

    <location netOffset="-584408.72,-4476613.85" convBoundary="0.00,0.00,1397.91,1120.93" origBoundary="-80.004731,40.435799,-79.988268,40.445849" projParameter="+proj=utm +zone=17 +ellps=WGS84 +datum=WGS84 +units=m +no_defs"/>

    <type id="highway.bridleway" priority="1" numLanes="1" speed="2.78" allow="pedestrian" oneway="1" width="2.00"/>
    <type id="highway.bus_guideway" priority="1" numLanes="1" speed="27.78" allow="bus" oneway="1"/>
    <type id="highway.cycleway" priority="1" numLanes="1" speed="8.33" allow="bicycle" oneway="0" width="1.00"/>
    <type id="highway.footway" priority="1" numLanes="1" speed="2.78" allow="pedestrian" oneway="1" width="2.00"/>
    <type id="highway.ford" priority="1" numLanes="1" speed="2.78" allow="army" oneway="0"/>
    <type id="highway.living_street" priority="2" numLanes="1" speed="2.78" disallow="tram rail_urban rail rail_electric rail_fast ship" oneway="0"/>
    <type id="highway.motorway" priority="14" numLanes="2" speed="39.44" allow="private emergency authority army vip passenger hov taxi bus coach delivery truck trailer motorcycle evehicle custom1 custom2" oneway="1"/>
    <type id="highway.motorway_link" priority="9" numLanes="1" speed="22.22" allow="private emergency authority army vip passenger hov taxi bus coach delivery truck trailer motorcycle evehicle custom1 custom2" oneway="1"/>
    <type id="highway.path" priority="1" numLanes="1" speed="2.78" allow="pedestrian bicycle" oneway="0" width="2.00"/>
    <type id="highway.pedestrian" priority="1" numLanes="1" speed="2.78" allow="pedestrian" oneway="1" width="2.00"/>
    <type id="highway.primary" priority="12" numLanes="2" speed="27.78" disallow="tram rail_urban rail rail_electric rail_fast ship" oneway="0"/>
    <type id="highway.primary_link" priority="7" numLanes="1" speed="22.22" disallow="tram rail_urban rail rail_electric rail_fast ship" oneway="0"/>
    <type id="highway.raceway" priority="15" numLanes="2" speed="83.33" allow="vip" oneway="0"/>
    <type id="highway.residential" priority="3" numLanes="1" speed="13.89" disallow="tram rail_urban rail rail_electric rail_fast ship" oneway="0"/>
    <type id="highway.secondary" priority="11" numLanes="1" speed="27.78" disallow="tram rail_urban rail rail_electric rail_fast ship" oneway="0"/>
    <type id="highway.secondary_link" priority="6" numLanes="1" speed="22.22" disallow="tram rail_urban rail rail_electric rail_fast ship" oneway="0"/>
    <type id="highway.service" priority="1" numLanes="1" speed="5.56" allow="pedestrian delivery bicycle" oneway="0"/>
    <type id="highway.stairs" priority="1" numLanes="1" speed="1.39" allow="pedestrian" oneway="1" width="2.00"/>
    <type id="highway.step" priority="1" numLanes="1" speed="1.39" allow="pedestrian" oneway="1" width="2.00"/>
    <type id="highway.steps" priority="1" numLanes="1" speed="1.39" allow="pedestrian" oneway="1" width="2.00"/>
    <type id="highway.tertiary" priority="10" numLanes="1" speed="22.22" disallow="tram rail_urban rail rail_electric rail_fast ship" oneway="0"/>
    <type id="highway.tertiary_link" priority="5" numLanes="1" speed="22.22" disallow="tram rail_urban rail rail_electric rail_fast ship" oneway="0"/>
    <type id="highway.track" priority="1" numLanes="1" speed="5.56" allow="pedestrian motorcycle moped bicycle" oneway="0"/>
    <type id="highway.trunk" priority="13" numLanes="2" speed="27.78" disallow="pedestrian bicycle tram rail_urban rail rail_electric rail_fast ship" oneway="0"/>
    <type id="highway.trunk_link" priority="8" numLanes="1" speed="22.22" disallow="pedestrian bicycle tram rail_urban rail rail_electric rail_fast ship" oneway="0"/>
    <type id="highway.unclassified" priority="4" numLanes="1" speed="13.89" disallow="tram rail_urban rail rail_electric rail_fast ship" oneway="0"/>
    <type id="highway.unsurfaced" priority="1" numLanes="1" speed="8.33" disallow="tram rail_urban rail rail_electric rail_fast ship" oneway="0"/>
    <type id="railway.highspeed" priority="21" numLanes="1" speed="69.44" allow="rail_fast" oneway="1"/>
    <type id="railway.light_rail" priority="19" numLanes="1" speed="27.78" allow="rail_urban" oneway="1"/>
    <type id="railway.preserved" priority="16" numLanes="1" speed="27.78" allow="rail" oneway="1"/>
    <type id="railway.rail" priority="20" numLanes="1" speed="44.44" allow="rail" oneway="1"/>
    <type id="railway.subway" priority="18" numLanes="1" speed="27.78" allow="rail_urban" oneway="1"/>
    <type id="railway.tram" priority="17" numLanes="1" speed="13.89" allow="tram" oneway="1"/>

    <edge id=":1016963192-AddedOnRampNode_0" function="internal">
        <lane id=":1016963192-AddedOnRampNode_0_0" index="0" allow="private emergency authority army vip passenger hov taxi bus coach delivery truck trailer motorcycle evehicle custom1 custom2" speed="22.22" length="20.47" shape="949.33,430.13 947.30,423.77 944.95,418.93 942.65,415.07 940.76,411.63"/>
    </edge>
    <edge id=":104361808_0" function="internal">
        <lane id=":104361808_0_0" index="0" disallow="tram rail_urban rail rail_electric rail_fast ship" speed="12.24" length="21.30" shape="901.83,253.91 896.38,254.71 891.71,256.79 887.83,260.13 884.74,264.75"/>
    </edge>
    <edge id=":104361808_1" function="internal">
        <lane id=":104361808_1_0" index="0" disallow="tram rail_urban rail rail_electric rail_fast ship" speed="27.78" length="29.06" shape="901.83,253.91 872.73,254.34"/>
        <lane id=":104361808_1_1" index="1" disallow="tram rail_urban rail rail_electric rail_fast ship" speed="27.78" length="29.06" shape="901.74,250.71 872.73,251.14"/>
    </edge>
    <edge id=":104361808_3" function="internal">
        <lane id=":104361808_3_0" index="0" disallow="tram rail_urban rail rail_electric rail_fast ship" speed="3.65" length="4.67" shape="901.74,250.71 900.52,249.94 900.10,249.16 900.47,248.34 901.65,247.51"/>
    </edge>
    <edge id=":104361808_4" function="internal">
        <lane id=":104361808_4_0" index="0" disallow="pedestrian bicycle tram rail_urban rail rail_electric rail_fast ship" speed="5.84" length="8.96" shape="897.55,238.46 897.05,241.08 897.55,242.93 899.05,244.01 901.56,244.31"/>
    </edge>
    <edge id=":104361808_5" function="internal">
        <lane id=":104361808_5_0" index="0" disallow="pedestrian bicycle tram rail_urban rail rail_electric rail_fast ship" speed="27.78" length="29.18" shape="897.55,238.46 894.86,245.32 891.67,251.82 888.22,258.22 884.74,264.75"/>
        <lane id=":104361808_5_1" index="1" disallow="pedestrian bicycle tram rail_urban rail rail_electric rail_fast ship" speed="27.78" length="29.18" shape="894.63,237.12 891.95,243.95 888.80,250.40 885.39,256.74 881.92,263.24"/>
    </edge>
    <edge id=":104361808_7" function="internal">
        <lane id=":104361808_7_0" index="0" disallow="pedestrian bicycle tram rail_urban rail rail_electric rail_fast ship" speed="12.67" length="9.41" shape="894.63,237.12 891.51,243.25 889.65,244.98"/>
    </edge>
    <edge id=":104361808_8" function="internal">
        <lane id=":104361808_8_0" index="0" disallow="pedestrian bicycle tram rail_urban rail rail_electric rail_fast ship" speed="3.66" length="2.35" shape="894.63,237.12 893.39,237.89 892.49,237.92"/>
    </edge>
    <edge id=":104361808_19" function="internal">
        <lane id=":104361808_19_0" index="0" disallow="pedestrian bicycle tram rail_urban rail rail_electric rail_fast ship" speed="12.67" length="18.55" shape="889.65,244.98 886.82,247.62 880.56,250.26 872.73,251.14"/>
    </edge>
    <edge id=":104361808_20" function="internal">
        <lane id=":104361808_20_0" index="0" disallow="pedestrian bicycle tram rail_urban rail rail_electric rail_fast ship" speed="3.66" length="2.35" shape="892.49,237.92 891.93,237.22 891.70,235.79"/>
    </edge>
    <edge id=":104361808_9" function="internal">
        <lane id=":104361808_9_0" index="0" disallow="pedestrian bicycle tram rail_urban rail rail_electric rail_fast ship" speed="10.90" length="20.51" shape="872.72,244.74 878.46,244.09 883.05,242.16 886.48,238.95 888.77,234.45"/>
    </edge>
    <edge id=":104361808_10" function="internal">
        <lane id=":104361808_10_0" index="0" disallow="tram rail_urban rail rail_electric rail_fast ship" speed="27.78" length="28.89" shape="872.72,244.74 901.56,244.31"/>
        <lane id=":104361808_10_1" index="1" disallow="tram rail_urban rail rail_electric rail_fast ship" speed="27.78" length="28.89" shape="872.72,247.94 901.65,247.51"/>
    </edge>
    <edge id=":104361808_12" function="internal">
        <lane id=":104361808_12_0" index="0" disallow="tram rail_urban rail rail_electric rail_fast ship" speed="8.82" length="7.77" shape="872.72,247.94 879.69,248.89 880.28,249.33"/>
    </edge>
    <edge id=":104361808_13" function="internal">
        <lane id=":104361808_13_0" index="0" disallow="tram rail_urban rail rail_electric rail_fast ship" speed="3.65" length="2.34" shape="872.72,247.94 873.92,248.74 874.33,249.54"/>
    </edge>
    <edge id=":104361808_21" function="internal">
        <lane id=":104361808_21_0" index="0" disallow="tram rail_urban rail rail_electric rail_fast ship" speed="8.82" length="16.02" shape="880.28,249.33 883.55,251.75 884.29,256.54 881.92,263.24"/>
    </edge>
    <edge id=":104361808_22" function="internal">
        <lane id=":104361808_22_0" index="0" disallow="tram rail_urban rail rail_electric rail_fast ship" speed="3.65" length="2.34" shape="874.33,249.54 873.93,250.34 872.73,251.14"/>
    </edge>
    <edge id=":104361808_14" function="internal">
        <lane id=":104361808_14_0" index="0" disallow="tram rail_urban rail rail_electric rail_fast ship" speed="5.71" length="9.15" shape="876.27,260.23 877.19,257.65 876.90,255.81 875.42,254.71 872.73,254.34"/>
    </edge>
    <edge id=":104361808_15" function="internal">
        <lane id=":104361808_15_0" index="0" disallow="pedestrian bicycle tram rail_urban rail rail_electric rail_fast ship" speed="27.78" length="28.78" shape="876.27,260.23 879.71,253.78 883.05,247.56 886.13,241.23 888.77,234.45"/>
        <lane id=":104361808_15_1" index="1" disallow="pedestrian bicycle tram rail_urban rail rail_electric rail_fast ship" speed="27.78" length="28.78" shape="879.10,261.73 882.55,255.26 885.92,248.98 889.04,242.59 891.70,235.79"/>
    </edge>
    <edge id=":104361808_17" function="internal">
        <lane id=":104361808_17_0" index="0" disallow="tram rail_urban rail rail_electric rail_fast ship" speed="13.99" length="9.70" shape="879.10,261.73 883.16,255.68 884.99,254.11"/>
    </edge>
    <edge id=":104361808_18" function="internal">
        <lane id=":104361808_18_0" index="0" disallow="tram rail_urban rail rail_electric rail_fast ship" speed="3.65" length="2.34" shape="879.10,261.73 880.37,261.05 881.26,261.08"/>
    </edge>
    <edge id=":104361808_23" function="internal">
        <lane id=":104361808_23_0" index="0" disallow="tram rail_urban rail rail_electric rail_fast ship" speed="13.99" length="18.36" shape="884.99,254.11 888.27,251.29 894.43,248.57 901.65,247.51"/>
    </edge>
    <edge id=":104361808_24" function="internal">
        <lane id=":104361808_24_0" index="0" disallow="tram rail_urban rail rail_electric rail_fast ship" speed="3.65" length="2.34" shape="881.26,261.08 881.78,261.81 881.92,263.24"/>
    </edge>
    <edge id=":104482657_0" function="internal">
        <lane id=":104482657_0_0" index="0" disallow="tram rail_urban rail rail_electric rail_fast ship" speed="3.65" length="4.67" shape="510.42,153.78 511.85,153.98 512.55,154.53 512.54,155.42 511.80,156.66"/>
    </edge>
    <edge id=":104572628_0" function="internal">
        <lane id=":104572628_0_0" index="0" disallow="tram rail_urban rail rail_electric rail_fast ship" speed="22.22" length="0.29" shape="636.37,605.12 636.11,605.25"/>
    </edge>
    <edge id=":104572628_1" function="internal">
        <lane id=":104572628_1_0" index="0" disallow="tram rail_urban rail rail_electric rail_fast ship" speed="22.22" length="0.31" shape="634.72,602.36 635.00,602.23"/>
    </edge>
    <edge id=":104572648_0" function="internal">
        <lane id=":104572648_0_0" index="0" disallow="pedestrian bicycle tram rail_urban rail rail_electric rail_fast ship" speed="12.71" length="10.27" shape="819.49,526.50 816.55,525.75 814.43,525.42 812.35,525.66 809.51,526.62"/>
    </edge>
    <edge id=":104572648_1" function="internal">
        <lane id=":104572648_1_0" index="0" disallow="pedestrian bicycle tram rail_urban rail rail_electric rail_fast ship" speed="6.07" length="13.06" shape="819.49,526.50 815.07,524.98 813.25,523.31 814.02,521.47 817.40,519.47"/>
    </edge>
    <edge id=":104572648_2" function="internal">
        <lane id=":104572648_2_0" index="0" disallow="tram rail_urban rail rail_electric rail_fast ship" speed="27.78" length="10.11" shape="818.70,522.40 809.51,526.62"/>
    </edge>
    <edge id=":104572648_3" function="internal">
        <lane id=":104572648_3_0" index="0" disallow="tram rail_urban rail rail_electric rail_fast ship" speed="3.65" length="2.34" shape="818.70,522.40 817.27,522.15 816.58,521.59"/>
    </edge>
    <edge id=":104572648_6" function="internal">
        <lane id=":104572648_6_0" index="0" disallow="tram rail_urban rail rail_electric rail_fast ship" speed="3.65" length="2.34" shape="816.58,521.59 816.62,520.69 817.40,519.47"/>
    </edge>
    <edge id=":104572648_4" function="internal">
        <lane id=":104572648_4_0" index="0" disallow="tram rail_urban rail rail_electric rail_fast ship" speed="27.78" length="9.97" shape="808.34,523.64 817.40,519.47"/>
    </edge>
    <edge id=":104572648_5" function="internal">
        <lane id=":104572648_5_0" index="0" disallow="tram rail_urban rail rail_electric rail_fast ship" speed="3.65" length="2.34" shape="808.34,523.64 809.75,523.94 810.42,524.54"/>
    </edge>
    <edge id=":104572648_7" function="internal">
        <lane id=":104572648_7_0" index="0" disallow="tram rail_urban rail rail_electric rail_fast ship" speed="3.65" length="2.34" shape="810.42,524.54 810.34,525.43 809.51,526.62"/>
    </edge>
    <edge id=":104573441_0" function="internal">
        <lane id=":104573441_0_0" index="0" disallow="tram rail_urban rail rail_electric rail_fast ship" speed="9.56" length="15.17" shape="852.56,361.31 850.51,357.26 848.02,354.39 845.07,352.70 841.68,352.20"/>
    </edge>
    <edge id=":104573441_1" function="internal">
        <lane id=":104573441_1_0" index="0" disallow="tram rail_urban rail rail_electric rail_fast ship" speed="27.78" length="19.28" shape="852.56,361.31 845.95,343.01"/>
        <lane id=":104573441_1_1" index="1" disallow="tram rail_urban rail rail_electric rail_fast ship" speed="27.78" length="19.28" shape="855.51,360.05 849.01,342.09"/>
    </edge>
    <edge id=":104573441_3" function="internal">
        <lane id=":104573441_3_0" index="0" disallow="tram rail_urban rail rail_electric rail_fast ship" speed="3.65" length="2.34" shape="855.51,360.05 855.77,358.63 856.35,357.95"/>
    </edge>
    <edge id=":104573441_14" function="internal">
        <lane id=":104573441_14_0" index="0" disallow="tram rail_urban rail rail_electric rail_fast ship" speed="3.65" length="2.34" shape="856.35,357.95 857.24,358.00 858.45,358.79"/>
    </edge>
    <edge id=":104573441_4" function="internal">
        <lane id=":104573441_4_0" index="0" disallow="tram rail_urban rail rail_electric rail_fast ship" speed="5.89" length="9.07" shape="865.28,351.46 862.72,351.92 861.22,353.09 860.77,354.96 861.39,357.53"/>
    </edge>
    <edge id=":104573441_5" function="internal">
        <lane id=":104573441_5_0" index="0" disallow="tram rail_urban rail rail_electric rail_fast ship" speed="27.78" length="23.61" shape="865.28,351.46 841.68,352.20"/>
    </edge>
    <edge id=":104573441_6" function="internal">
        <lane id=":104573441_6_0" index="0" disallow="tram rail_urban rail rail_electric rail_fast ship" speed="10.03" length="18.46" shape="865.16,348.26 858.85,348.07 854.05,346.98 850.77,344.99 849.01,342.09"/>
    </edge>
    <edge id=":104573441_7" function="internal">
        <lane id=":104573441_7_0" index="0" disallow="tram rail_urban rail rail_electric rail_fast ship" speed="27.78" length="18.55" shape="855.15,340.26 861.39,357.53"/>
        <lane id=":104573441_7_1" index="1" disallow="tram rail_urban rail rail_electric rail_fast ship" speed="27.78" length="18.55" shape="852.08,341.18 858.45,358.79"/>
    </edge>
    <edge id=":104573441_9" function="internal">
        <lane id=":104573441_9_0" index="0" disallow="tram rail_urban rail rail_electric rail_fast ship" speed="8.31" length="5.46" shape="852.08,341.18 852.63,345.87 852.32,346.54"/>
    </edge>
    <edge id=":104573441_10" function="internal">
        <lane id=":104573441_10_0" index="0" disallow="tram rail_urban rail rail_electric rail_fast ship" speed="3.65" length="2.24" shape="852.08,341.18 851.66,342.56 851.08,343.10"/>
    </edge>
    <edge id=":104573441_15" function="internal">
        <lane id=":104573441_15_0" index="0" disallow="tram rail_urban rail rail_electric rail_fast ship" speed="8.31" length="13.02" shape="852.32,346.54 851.08,349.27 847.43,351.38 841.68,352.20"/>
    </edge>
    <edge id=":104573441_16" function="internal">
        <lane id=":104573441_16_0" index="0" disallow="tram rail_urban rail rail_electric rail_fast ship" speed="3.65" length="2.44" shape="851.08,343.10 851.01,343.17 850.12,343.02 849.01,342.09"/>
    </edge>
    <edge id=":104573441_11" function="internal">
        <lane id=":104573441_11_0" index="0" disallow="tram rail_urban rail rail_electric rail_fast ship" speed="6.01" length="9.08" shape="841.60,349.00 844.16,348.57 845.73,347.43 846.33,345.57 845.95,343.01"/>
    </edge>
    <edge id=":104573441_12" function="internal">
        <lane id=":104573441_12_0" index="0" disallow="tram rail_urban rail rail_electric rail_fast ship" speed="11.14" length="20.87" shape="841.60,349.00 847.48,349.49 852.25,351.29 855.91,354.39 858.45,358.79"/>
    </edge>
    <edge id=":104573441_13" function="internal">
        <lane id=":104573441_13_0" index="0" disallow="tram rail_urban rail rail_electric rail_fast ship" speed="3.65" length="2.60" shape="841.60,349.00 842.82,349.77 843.24,350.56 843.13,350.80"/>
    </edge>
    <edge id=":104573441_17" function="internal">
        <lane id=":104573441_17_0" index="0" disallow="tram rail_urban rail rail_electric rail_fast ship" speed="3.65" length="2.08" shape="843.13,350.80 842.86,351.37 841.68,352.20"/>
    </edge>
    <edge id=":104633434_0" function="internal">
        <lane id=":104633434_0_0" index="0" disallow="tram rail_urban rail rail_electric rail_fast ship" speed="6.10" length="7.69" shape="768.64,959.27 767.82,960.38 766.39,960.89 764.35,960.80 761.68,960.11"/>
    </edge>
    <edge id=":104633434_1" function="internal">
        <lane id=":104633434_1_0" index="0" disallow="tram rail_urban rail rail_electric rail_fast ship" speed="3.65" length="4.67" shape="768.64,959.27 767.48,960.13 766.59,960.24 765.97,959.59 765.62,958.19"/>
    </edge>
    <edge id=":104633441_0" function="internal">
        <lane id=":104633441_0_0" index="0" disallow="tram rail_urban rail rail_electric rail_fast ship" speed="13.89" length="0.24" shape="783.40,917.42 783.32,917.65"/>
    </edge>
    <edge id=":104633441_1" function="internal">
        <lane id=":104633441_1_0" index="0" disallow="tram rail_urban rail rail_electric rail_fast ship" speed="13.89" length="0.31" shape="780.29,916.59 780.40,916.30"/>
    </edge>
    <edge id=":104650352_0" function="internal">
        <lane id=":104650352_0_0" index="0" disallow="tram rail_urban rail rail_electric rail_fast ship" speed="3.65" length="4.67" shape="777.22,160.77 778.64,161.05 779.32,161.63 779.26,162.52 778.46,163.73"/>
    </edge>
    <edge id=":104738187_0" function="internal">
        <lane id=":104738187_0_0" index="0" disallow="tram rail_urban rail rail_electric rail_fast ship" speed="6.82" length="9.34" shape="970.10,259.48 969.55,256.93 968.37,255.10 966.57,254.00 964.15,253.63"/>
    </edge>
    <edge id=":104738187_1" function="internal">
        <lane id=":104738187_1_0" index="0" disallow="tram rail_urban rail rail_electric rail_fast ship" speed="8.61" length="17.06" shape="970.10,259.48 970.23,254.14 971.61,250.27 974.26,247.86 978.18,246.92"/>
    </edge>
    <edge id=":104738187_2" function="internal">
        <lane id=":104738187_2_0" index="0" disallow="tram rail_urban rail rail_electric rail_fast ship" speed="3.65" length="4.67" shape="970.10,259.48 970.80,258.22 971.56,257.75 972.39,258.08 973.29,259.21"/>
    </edge>
    <edge id=":104738187_3" function="internal">
        <lane id=":104738187_3_0" index="0" disallow="tram rail_urban rail rail_electric rail_fast ship" speed="6.43" length="9.03" shape="978.47,253.31 976.03,253.78 974.35,254.92 973.44,256.73 973.29,259.21"/>
    </edge>
    <edge id=":104738187_4" function="internal">
        <lane id=":104738187_4_0" index="0" disallow="tram rail_urban rail rail_electric rail_fast ship" speed="27.78" length="14.25" shape="978.47,253.31 964.15,253.63"/>
        <lane id=":104738187_4_1" index="1" disallow="tram rail_urban rail rail_electric rail_fast ship" speed="27.78" length="14.25" shape="978.33,250.12 964.16,250.43"/>
    </edge>
    <edge id=":104738187_6" function="internal">
        <lane id=":104738187_6_0" index="0" disallow="tram rail_urban rail rail_electric rail_fast ship" speed="3.65" length="2.34" shape="978.33,250.12 977.09,249.37 976.65,248.59"/>
    </edge>
    <edge id=":104738187_14" function="internal">
        <lane id=":104738187_14_0" index="0" disallow="tram rail_urban rail rail_electric rail_fast ship" speed="3.65" length="2.34" shape="976.65,248.59 977.02,247.77 978.18,246.92"/>
    </edge>
    <edge id=":104738187_7" function="internal">
        <lane id=":104738187_7_0" index="0" disallow="tram rail_urban rail rail_electric rail_fast ship" speed="7.11" length="10.80" shape="970.11,238.35 970.75,240.83 972.28,242.55 974.71,243.52 978.03,243.72"/>
    </edge>
    <edge id=":104738187_8" function="internal">
        <lane id=":104738187_8_0" index="0" disallow="tram rail_urban rail rail_electric rail_fast ship" speed="13.89" length="21.10" shape="970.11,238.35 973.29,259.21"/>
    </edge>
    <edge id=":104738187_9" function="internal">
        <lane id=":104738187_9_0" index="0" disallow="tram rail_urban rail rail_electric rail_fast ship" speed="8.06" length="15.20" shape="970.11,238.35 970.05,243.65 969.03,247.43 967.07,249.69 964.16,250.43"/>
    </edge>
    <edge id=":104738187_10" function="internal">
        <lane id=":104738187_10_0" index="0" disallow="tram rail_urban rail rail_electric rail_fast ship" speed="27.78" length="13.92" shape="964.20,244.03 978.03,243.72"/>
        <lane id=":104738187_10_1" index="1" disallow="tram rail_urban rail rail_electric rail_fast ship" speed="27.78" length="13.92" shape="964.18,247.23 978.18,246.92"/>
    </edge>
    <edge id=":104738187_12" function="internal">
        <lane id=":104738187_12_0" index="0" disallow="tram rail_urban rail rail_electric rail_fast ship" speed="8.92" length="4.85" shape="964.18,247.23 967.79,247.99 968.68,248.73"/>
    </edge>
    <edge id=":104738187_13" function="internal">
        <lane id=":104738187_13_0" index="0" disallow="tram rail_urban rail rail_electric rail_fast ship" speed="3.65" length="2.34" shape="964.18,247.23 965.38,248.03 965.77,248.84"/>
    </edge>
    <edge id=":104738187_15" function="internal">
        <lane id=":104738187_15_0" index="0" disallow="tram rail_urban rail rail_electric rail_fast ship" speed="8.92" length="11.86" shape="968.68,248.73 970.51,250.24 972.35,253.98 973.29,259.21"/>
    </edge>
    <edge id=":104738187_16" function="internal">
        <lane id=":104738187_16_0" index="0" disallow="tram rail_urban rail rail_electric rail_fast ship" speed="3.65" length="2.34" shape="965.77,248.84 965.37,249.63 964.16,250.43"/>
    </edge>
    <edge id=":104738194_0" function="internal">
        <lane id=":104738194_0_0" index="0" disallow="tram rail_urban rail rail_electric rail_fast ship" speed="13.89" length="8.70" shape="971.67,279.65 971.06,270.97"/>
    </edge>
    <edge id=":104738194_1" function="internal">
        <lane id=":104738194_1_0" index="0" disallow="tram rail_urban rail rail_electric rail_fast ship" speed="6.27" length="4.07" shape="971.67,279.65 972.00,277.08 973.01,276.00"/>
    </edge>
    <edge id=":104738194_2" function="internal">
        <lane id=":104738194_2_0" index="0" disallow="tram rail_urban rail rail_electric rail_fast ship" speed="3.65" length="2.34" shape="971.67,279.65 972.39,278.41 973.16,277.96"/>
    </edge>
    <edge id=":104738194_6" function="internal">
        <lane id=":104738194_6_0" index="0" disallow="tram rail_urban rail rail_electric rail_fast ship" speed="6.27" length="6.59" shape="973.01,276.00 973.39,275.61 975.83,275.24 979.33,275.96"/>
    </edge>
    <edge id=":104738194_7" function="internal">
        <lane id=":104738194_7_0" index="0" disallow="tram rail_urban rail rail_electric rail_fast ship" speed="3.65" length="2.34" shape="973.16,277.96 973.99,278.31 974.86,279.45"/>
    </edge>
    <edge id=":104738194_3" function="internal">
        <lane id=":104738194_3_0" index="0" disallow="tram rail_urban rail rail_electric rail_fast ship" speed="7.13" length="7.77" shape="974.25,270.71 974.68,272.44 975.67,273.89 977.22,275.07 979.33,275.96"/>
    </edge>
    <edge id=":104738194_4" function="internal">
        <lane id=":104738194_4_0" index="0" disallow="tram rail_urban rail rail_electric rail_fast ship" speed="13.89" length="8.77" shape="974.25,270.71 974.86,279.45"/>
    </edge>
    <edge id=":104738194_5" function="internal">
        <lane id=":104738194_5_0" index="0" disallow="tram rail_urban rail rail_electric rail_fast ship" speed="3.65" length="2.34" shape="974.25,270.71 973.55,271.97 972.79,272.44"/>
    </edge>
    <edge id=":104738194_8" function="internal">
        <lane id=":104738194_8_0" index="0" disallow="tram rail_urban rail rail_electric rail_fast ship" speed="3.65" length="2.34" shape="972.79,272.44 971.96,272.10 971.06,270.97"/>
    </edge>
    <edge id=":104870783_0" function="internal">
        <lane id=":104870783_0_0" index="0" disallow="tram rail_urban rail rail_electric rail_fast ship" speed="3.65" length="4.67" shape="400.90,999.37 399.74,1000.23 398.85,1000.34 398.23,999.69 397.88,998.29"/>
    </edge>
    <edge id=":104870792_0" function="internal">
        <lane id=":104870792_0_0" index="0" disallow="tram rail_urban rail rail_electric rail_fast ship" speed="3.65" length="4.67" shape="480.84,1032.88 479.68,1033.73 478.79,1033.83 478.17,1033.18 477.84,1031.78"/>
    </edge>
    <edge id=":104878602_0" function="internal">
        <lane id=":104878602_0_0" index="0" disallow="tram rail_urban rail rail_electric rail_fast ship" speed="6.99" length="9.99" shape="541.12,881.90 538.60,881.55 536.46,882.16 534.72,883.73 533.36,886.26"/>
    </edge>
    <edge id=":104878602_1" function="internal">
        <lane id=":104878602_1_0" index="0" disallow="tram rail_urban rail rail_electric rail_fast ship" speed="11.18" length="14.34" shape="541.12,881.90 538.02,880.69 535.34,879.28 532.28,877.73 528.04,876.07"/>
    </edge>
    <edge id=":104878602_2" function="internal">
        <lane id=":104878602_2_0" index="0" disallow="tram rail_urban rail rail_electric rail_fast ship" speed="7.50" length="12.82" shape="541.12,881.90 537.55,880.35 535.36,878.27 534.53,875.67 535.07,872.54"/>
    </edge>
    <edge id=":104878602_3" function="internal">
        <lane id=":104878602_3_0" index="0" disallow="tram rail_urban rail rail_electric rail_fast ship" speed="11.18" length="13.48" shape="538.08,873.63 533.36,886.26"/>
    </edge>
    <edge id=":104878602_4" function="internal">
        <lane id=":104878602_4_0" index="0" disallow="tram rail_urban rail rail_electric rail_fast ship" speed="7.34" length="4.09" shape="538.08,873.63 536.75,875.71 535.31,876.46"/>
    </edge>
    <edge id=":104878602_5" function="internal">
        <lane id=":104878602_5_0" index="0" disallow="tram rail_urban rail rail_electric rail_fast ship" speed="3.65" length="2.34" shape="538.08,873.63 536.91,874.49 536.03,874.59"/>
    </edge>
    <edge id=":104878602_9" function="internal">
        <lane id=":104878602_9_0" index="0" disallow="tram rail_urban rail rail_electric rail_fast ship" speed="7.34" length="7.46" shape="535.31,876.46 534.64,876.81 531.73,876.93 528.04,876.07"/>
    </edge>
    <edge id=":104878602_10" function="internal">