<?xml version="1.0" encoding="UTF-8"?>
<routes xmlns:xsi="http://www.w3.org/2001/XMLSchema-instance" xsi:noNamespaceSchemaLocation="http://sumo.dlr.de/xsd/routes_file.xsd">

<vType id="noVar" speedFactor="1.0" speedDev="0.0"/>
<route id="route_Fifth-Bigelow-Grant.62" edges="Fifth-Bigelow-Grant -625839982#1 -625839982#0 -625220729 55169716#0 55169716#1 Fifth-Grant-WilliamPenn 55169716#4 55169716#5 Fifth-WilliamPenn-Smithfield" />
<vehicle type="noVar" depart="1" id="Fifth-Bigelow-Grant.62" route="route_Fifth-Bigelow-Grant.62" />
<route id="route_Grant-Fourth-Forbes.529" edges="Grant-Fourth-Forbes 1043338220#0 1043338220#1 1043338220#2 54448157#0 Grant-Forbes-Fifth 54448157#2 54448157#3 625220730#0 Grant-Fifth-Oliver 625220730#2 625220730#3 625220730#4 Grant-Oliver-Sixth" />
<vehicle type="noVar" depart="1" id="Grant-Fourth-Forbes.529" route="route_Grant-Fourth-Forbes.529" />
<route id="route_Grant-Sixth-Oliver.396" edges="Grant-Sixth-Oliver 466749735#8 466749735#9 466749735#10 Grant-Oliver-Fifth 466749735#12 466749735#13 625497926#0 Grant-Fifth-Forbes 625497926#2 625497926#3 1043338221 25795333#0 25795333#1 Forbes-Grant-Bigelow" />
<vehicle type="noVar" depart="2" id="Grant-Sixth-Oliver.396" route="route_Grant-Sixth-Oliver.396" />
<route id="route_Grant-Fourth-Forbes.533" edges="Grant-Fourth-Forbes 1043338220#0 1043338220#1 1043338220#2 54448157#0 Grant-Forbes-Fifth 54448157#2 54448157#3 625220730#0 Grant-Fifth-Oliver 625220730#2 625220730#3 625220730#4 Grant-Oliver-Sixth" />
<vehicle type="noVar" depart="4" id="Grant-Fourth-Forbes.533" route="route_Grant-Fourth-Forbes.533" />
<route id="route_Sixth-Grant-WilliamPenn.169" edges="Sixth-Grant-WilliamPenn 488125922#4 661624479#0 Sixth-WilliamPenn-Smithfield" />
<vehicle type="noVar" depart="4" id="Sixth-Grant-WilliamPenn.169" route="route_Sixth-Grant-WilliamPenn.169" />
<route id="route_Oliver-Smithfield-WilliamPenn.54" edges="Oliver-Smithfield-WilliamPenn 1073294205#2 1065071639#0 Oliver-WilliamPenn-Grant 1065071639#2 1065071639#3 1065071639#4 625220730#4 Grant-Oliver-Sixth" />
<vehicle type="noVar" depart="4" id="Oliver-Smithfield-WilliamPenn.54" route="route_Oliver-Smithfield-WilliamPenn.54" />
<route id="route_Grant-Sixth-Oliver.336" edges="Grant-Sixth-Oliver 466749735#8 466749735#9 466749735#10 Grant-Oliver-Fifth 466749735#12 466749735#13 55169716#0 55169716#1 Fifth-Grant-WilliamPenn 55169716#4 11722268#0 11722268#1 11722268#2 WilliamPenn-Fifth-Forbes 203322566#1 203322566#2 WilliamPenn-Forbes-Fourth" />
<vehicle type="noVar" depart="5" id="Grant-Sixth-Oliver.336" route="route_Grant-Sixth-Oliver.336" />
<route id="route_Sixth-Smithfield-WilliamPenn.219" edges="Sixth-Smithfield-WilliamPenn -661624479#0 -488125922#4 Sixth-WilliamPenn-Grant" />
<vehicle type="noVar" depart="7" id="Sixth-Smithfield-WilliamPenn.219" route="route_Sixth-Smithfield-WilliamPenn.219" />
<route id="route_Grant-Sixth-Oliver.85" edges="Grant-Sixth-Oliver 466749735#8 466749735#9 466749735#10 Grant-Oliver-Fifth 466749735#12 466749735#13 625220729 625839982#0 625839982#1 Fifth-Grant-Bigelow" />
<vehicle type="noVar" depart="8" id="Grant-Sixth-Oliver.85" route="route_Grant-Sixth-Oliver.85" />
<route id="route_Sixth-Smithfield-WilliamPenn.15" edges="Sixth-Smithfield-WilliamPenn -661624479#0 1065071640#0 WilliamPenn-Sixth-Oliver 1065071640#2 661624478#0 WilliamPenn-Oliver-Fifth 661624478#2 661624478#3 55169716#5 Fifth-WilliamPenn-Smithfield" />
<vehicle type="noVar" depart="10" id="Sixth-Smithfield-WilliamPenn.15" route="route_Sixth-Smithfield-WilliamPenn.15" />
<route id="route_Grant-Sixth-Oliver.119" edges="Grant-Sixth-Oliver 466749735#8 466749735#9 466749735#10 Grant-Oliver-Fifth 466749735#12 466749735#13 625497926#0 Grant-Fifth-Forbes 625497926#2 625497926#3 625497926#4 Grant-Forbes-Fourth" />
<vehicle type="noVar" depart="12" id="Grant-Sixth-Oliver.119" route="route_Grant-Sixth-Oliver.119" />
<route id="route_Grant-Fourth-Forbes.689" edges="Grant-Fourth-Forbes 1043338220#0 1043338220#1 1043338220#2 -1043338221 11729055#0 11729055#1 Forbes-Grant-WilliamPenn 11729055#5 203322566#2 WilliamPenn-Forbes-Fourth" />
<vehicle type="noVar" depart="12" id="Grant-Fourth-Forbes.689" route="route_Grant-Fourth-Forbes.689" />
<route id="route_Sixth-Smithfield-WilliamPenn.159" edges="Sixth-Smithfield-WilliamPenn -661624479#0 -488125922#4 Sixth-WilliamPenn-Grant" />
<vehicle type="noVar" depart="13" id="Sixth-Smithfield-WilliamPenn.159" route="route_Sixth-Smithfield-WilliamPenn.159" />
<route id="route_Sixth-Grant-WilliamPenn.314" edges="Sixth-Grant-WilliamPenn 488125922#4 661624479#0 Sixth-WilliamPenn-Smithfield" />
<vehicle type="noVar" depart="14" id="Sixth-Grant-WilliamPenn.314" route="route_Sixth-Grant-WilliamPenn.314" />
<route id="route_Fifth-Bigelow-Grant.32" edges="Fifth-Bigelow-Grant -625839982#1 -625839982#0 -625220729 625497926#0 Grant-Fifth-Forbes 625497926#2 625497926#3 625497926#4 Grant-Forbes-Fourth" />
<vehicle type="noVar" depart="14" id="Fifth-Bigelow-Grant.32" route="route_Fifth-Bigelow-Grant.32" />
<route id="route_Forbes-Bigelow-Grant.221" edges="Forbes-Bigelow-Grant -25795333#1 -25795333#0 -1043338221 625497926#4 Grant-Forbes-Fourth" />
<vehicle type="noVar" depart="14" id="Forbes-Bigelow-Grant.221" route="route_Forbes-Bigelow-Grant.221" />
<route id="route_Sixth-Smithfield-WilliamPenn.202" edges="Sixth-Smithfield-WilliamPenn -661624479#0 -488125922#4 Sixth-WilliamPenn-Grant" />
<vehicle type="noVar" depart="16" id="Sixth-Smithfield-WilliamPenn.202" route="route_Sixth-Smithfield-WilliamPenn.202" />
<route id="route_Sixth-Grant-WilliamPenn.139" edges="Sixth-Grant-WilliamPenn 488125922#4 661624479#0 Sixth-WilliamPenn-Smithfield" />
<vehicle type="noVar" depart="17" id="Sixth-Grant-WilliamPenn.139" route="route_Sixth-Grant-WilliamPenn.139" />
<route id="route_Sixth-Smithfield-WilliamPenn.268" edges="Sixth-Smithfield-WilliamPenn -661624479#0 1065071640#0 WilliamPenn-Sixth-Oliver 1065071640#2 -1073294205#2 Oliver-WilliamPenn-Smithfield" />
<vehicle type="noVar" depart="19" id="Sixth-Smithfield-WilliamPenn.268" route="route_Sixth-Smithfield-WilliamPenn.268" />
<route id="route_Forbes-Bigelow-Grant.102" edges="Forbes-Bigelow-Grant -25795333#1 -25795333#0 -1043338221 11729055#0 11729055#1 Forbes-Grant-WilliamPenn 11729055#5 203322566#2 WilliamPenn-Forbes-Fourth" />
<vehicle type="noVar" depart="19" id="Forbes-Bigelow-Grant.102" route="route_Forbes-Bigelow-Grant.102" />
<route id="route_Grant-Fourth-Forbes.563" edges="Grant-Fourth-Forbes 1043338220#0 1043338220#1 1043338220#2 -1043338221 11729055#0 11729055#1 Forbes-Grant-WilliamPenn 11729055#5 Forbes-WilliamPenn-Smithfield" />
<vehicle type="noVar" depart="20" id="Grant-Fourth-Forbes.563" route="route_Grant-Fourth-Forbes.563" />
<route id="route_Sixth-Smithfield-WilliamPenn.139" edges="Sixth-Smithfield-WilliamPenn -661624479#0 -488125922#4 Sixth-WilliamPenn-Grant" />
<vehicle type="noVar" depart="22" id="Sixth-Smithfield-WilliamPenn.139" route="route_Sixth-Smithfield-WilliamPenn.139" />
<route id="route_Fifth-Bigelow-Grant.173" edges="Fifth-Bigelow-Grant -625839982#1 -625839982#0 -625220729 55169716#0 55169716#1 Fifth-Grant-WilliamPenn 55169716#4 55169716#5 Fifth-WilliamPenn-Smithfield" />
<vehicle type="noVar" depart="22" id="Fifth-Bigelow-Grant.173" route="route_Fifth-Bigelow-Grant.173" />
<route id="route_Oliver-Smithfield-WilliamPenn.102" edges="Oliver-Smithfield-WilliamPenn 1073294205#2 1065071639#0 Oliver-WilliamPenn-Grant 1065071639#2 1065071639#3 1065071639#4 625220730#4 Grant-Oliver-Sixth" />
<vehicle type="noVar" depart="23" id="Oliver-Smithfield-WilliamPenn.102" route="route_Oliver-Smithfield-WilliamPenn.102" />
<route id="route_Sixth-Grant-WilliamPenn.6" edges="Sixth-Grant-WilliamPenn 488125922#4 661624479#0 Sixth-WilliamPenn-Smithfield" />
<vehicle type="noVar" depart="24" id="Sixth-Grant-WilliamPenn.6" route="route_Sixth-Grant-WilliamPenn.6" />
<route id="route_Grant-Fourth-Forbes.559" edges="Grant-Fourth-Forbes 1043338220#0 1043338220#1 1043338220#2 -1043338221 11729055#0 11729055#1 Forbes-Grant-WilliamPenn 11729055#5 Forbes-WilliamPenn-Smithfield" />
<vehicle type="noVar" depart="24" id="Grant-Fourth-Forbes.559" route="route_Grant-Fourth-Forbes.559" />
<route id="route_Forbes-Bigelow-Grant.8" edges="Forbes-Bigelow-Grant -25795333#1 -25795333#0 -1043338221 625497926#4 Grant-Forbes-Fourth" />
<vehicle type="noVar" depart="27" id="Forbes-Bigelow-Grant.8" route="route_Forbes-Bigelow-Grant.8" />
<route id="route_Sixth-Grant-WilliamPenn.297" edges="Sixth-Grant-WilliamPenn 488125922#4 661624479#0 Sixth-WilliamPenn-Smithfield" />
<vehicle type="noVar" depart="28" id="Sixth-Grant-WilliamPenn.297" route="route_Sixth-Grant-WilliamPenn.297" />
<route id="route_Fifth-Bigelow-Grant.5" edges="Fifth-Bigelow-Grant -625839982#1 -625839982#0 -625220729 55169716#0 55169716#1 Fifth-Grant-WilliamPenn 55169716#4 55169716#5 Fifth-WilliamPenn-Smithfield" />
<vehicle type="noVar" depart="30" id="Fifth-Bigelow-Grant.5" route="route_Fifth-Bigelow-Grant.5" />
<route id="route_Sixth-Grant-WilliamPenn.140" edges="Sixth-Grant-WilliamPenn 488125922#4 661624479#0 Sixth-WilliamPenn-Smithfield" />
<vehicle type="noVar" depart="31" id="Sixth-Grant-WilliamPenn.140" route="route_Sixth-Grant-WilliamPenn.140" />
<route id="route_WilliamPenn-Seventh-Sixth.200" edges="WilliamPenn-Seventh-Sixth 11729008#5 661624479#0 Sixth-WilliamPenn-Smithfield" />
<vehicle type="noVar" depart="31" id="WilliamPenn-Seventh-Sixth.200" route="route_WilliamPenn-Seventh-Sixth.200" />
<route id="route_Sixth-Smithfield-WilliamPenn.195" edges="Sixth-Smithfield-WilliamPenn -661624479#0 1065071640#0 WilliamPenn-Sixth-Oliver 1065071640#2 661624478#0 WilliamPenn-Oliver-Fifth 661624478#2 661624478#3 11722268#0 11722268#1 11722268#2 WilliamPenn-Fifth-Forbes 203322566#1 203322566#2 WilliamPenn-Forbes-Fourth" />
<vehicle type="noVar" depart="32" id="Sixth-Smithfield-WilliamPenn.195" route="route_Sixth-Smithfield-WilliamPenn.195" />
<route id="route_Forbes-Bigelow-Grant.267" edges="Forbes-Bigelow-Grant -25795333#1 -25795333#0 -1043338221 625497926#4 Grant-Forbes-Fourth" />
<vehicle type="noVar" depart="33" id="Forbes-Bigelow-Grant.267" route="route_Forbes-Bigelow-Grant.267" />
<route id="route_WilliamPenn-Seventh-Sixth.87" edges="WilliamPenn-Seventh-Sixth 11729008#5 661624479#0 Sixth-WilliamPenn-Smithfield" />
<vehicle type="noVar" depart="34" id="WilliamPenn-Seventh-Sixth.87" route="route_WilliamPenn-Seventh-Sixth.87" />
<route id="route_Fifth-Smithfield-WilliamPenn.9" edges="Fifth-Smithfield-WilliamPenn -55169716#5 -55169716#4 Fifth-WilliamPenn-Grant -55169716#1 -55169716#0 625220729 625839982#0 625839982#1 Fifth-Grant-Bigelow" />
<vehicle type="noVar" depart="34" id="Fifth-Smithfield-WilliamPenn.9" route="route_Fifth-Smithfield-WilliamPenn.9" />
<route id="route_Grant-Fourth-Forbes.6" edges="Grant-Fourth-Forbes 1043338220#0 1043338220#1 1043338220#2 54448157#0 Grant-Forbes-Fifth 54448157#2 54448157#3 625220730#0 Grant-Fifth-Oliver 625220730#2 625220730#3 625220730#4 Grant-Oliver-Sixth" />
<vehicle type="noVar" depart="34" id="Grant-Fourth-Forbes.6" route="route_Grant-Fourth-Forbes.6" />
<route id="route_Forbes-Bigelow-Grant.74" edges="Forbes-Bigelow-Grant -25795333#1 -25795333#0 -1043338221 11729055#0 11729055#1 Forbes-Grant-WilliamPenn 11729055#5 203322566#2 WilliamPenn-Forbes-Fourth" />
<vehicle type="noVar" depart="36" id="Forbes-Bigelow-Grant.74" route="route_Forbes-Bigelow-Grant.74" />
<route id="route_Fifth-Bigelow-Grant.362" edges="Fifth-Bigelow-Grant -625839982#1 -625839982#0 625220730#0 Grant-Fifth-Oliver 625220730#2 625220730#3 625220730#4 Grant-Oliver-Sixth" />
<vehicle type="noVar" depart="36" id="Fifth-Bigelow-Grant.362" route="route_Fifth-Bigelow-Grant.362" />
<route id="route_Grant-Fourth-Forbes.633" edges="Grant-Fourth-Forbes 1043338220#0 1043338220#1 1043338220#2 54448157#0 Grant-Forbes-Fifth 54448157#2 54448157#3 625220730#0 Grant-Fifth-Oliver 625220730#2 625220730#3 625220730#4 Grant-Oliver-Sixth" />
<vehicle type="noVar" depart="37" id="Grant-Fourth-Forbes.633" route="route_Grant-Fourth-Forbes.633" />
<route id="route_WilliamPenn-Seventh-Sixth.115" edges="WilliamPenn-Seventh-Sixth 11729008#5 661624479#0 Sixth-WilliamPenn-Smithfield" />
<vehicle type="noVar" depart="38" id="WilliamPenn-Seventh-Sixth.115" route="route_WilliamPenn-Seventh-Sixth.115" />
<route id="route_Fifth-Bigelow-Grant.342" edges="Fifth-Bigelow-Grant -625839982#1 -625839982#0 -625220729 625497926#0 Grant-Fifth-Forbes 625497926#2 625497926#3 625497926#4 Grant-Forbes-Fourth" />
<vehicle type="noVar" depart="39" id="Fifth-Bigelow-Grant.342" route="route_Fifth-Bigelow-Grant.342" />
<route id="route_Grant-Fourth-Forbes.648" edges="Grant-Fourth-Forbes 1043338220#0 1043338220#1 1043338220#2 -1043338221 11729055#0 11729055#1 Forbes-Grant-WilliamPenn 11729055#5 203322566#2 WilliamPenn-Forbes-Fourth" />
<vehicle type="noVar" depart="40" id="Grant-Fourth-Forbes.648" route="route_Grant-Fourth-Forbes.648" />
<route id="route_Oliver-Smithfield-WilliamPenn.108" edges="Oliver-Smithfield-WilliamPenn 1073294205#2 661624478#0 WilliamPenn-Oliver-Fifth 661624478#2 661624478#3 -55169716#4 Fifth-WilliamPenn-Grant -55169716#1 -55169716#0 625220729 625839982#0 625839982#1 Fifth-Grant-Bigelow" />
<vehicle type="noVar" depart="42" id="Oliver-Smithfield-WilliamPenn.108" route="route_Oliver-Smithfield-WilliamPenn.108" />
<route id="route_Grant-Fourth-Forbes.667" edges="Grant-Fourth-Forbes 1043338220#0 1043338220#1 1043338220#2 -1043338221 11729055#0 11729055#1 Forbes-Grant-WilliamPenn 11729055#5 Forbes-WilliamPenn-Smithfield" />
<vehicle type="noVar" depart="42" id="Grant-Fourth-Forbes.667" route="route_Grant-Fourth-Forbes.667" />
<route id="route_WilliamPenn-Seventh-Sixth.86" edges="WilliamPenn-Seventh-Sixth 11729008#5 661624479#0 Sixth-WilliamPenn-Smithfield" />
<vehicle type="noVar" depart="44" id="WilliamPenn-Seventh-Sixth.86" route="route_WilliamPenn-Seventh-Sixth.86" />
<route id="route_Sixth-Smithfield-WilliamPenn.111" edges="Sixth-Smithfield-WilliamPenn -661624479#0 1065071640#0 WilliamPenn-Sixth-Oliver 1065071640#2 661624478#0 WilliamPenn-Oliver-Fifth 661624478#2 661624478#3 11722268#0 11722268#1 11722268#2 WilliamPenn-Fifth-Forbes 203322566#1 203322566#2 WilliamPenn-Forbes-Fourth" />
<vehicle type="noVar" depart="46" id="Sixth-Smithfield-WilliamPenn.111" route="route_Sixth-Smithfield-WilliamPenn.111" />
<route id="route_Oliver-Smithfield-WilliamPenn.21" edges="Oliver-Smithfield-WilliamPenn 1073294205#2 661624478#0 WilliamPenn-Oliver-Fifth 661624478#2 661624478#3 11722268#0 11722268#1 11722268#2 WilliamPenn-Fifth-Forbes 203322566#1 Forbes-WilliamPenn-Smithfield" />
<vehicle type="noVar" depart="50" id="Oliver-Smithfield-WilliamPenn.21" route="route_Oliver-Smithfield-WilliamPenn.21" />
<route id="route_Oliver-Smithfield-WilliamPenn.101" edges="Oliver-Smithfield-WilliamPenn 1073294205#2 1065071639#0 Oliver-WilliamPenn-Grant 1065071639#2 1065071639#3 1065071639#4 625220730#4 Grant-Oliver-Sixth" />
<vehicle type="noVar" depart="53" id="Oliver-Smithfield-WilliamPenn.101" route="route_Oliver-Smithfield-WilliamPenn.101" />
<route id="route_Grant-Fourth-Forbes.547" edges="Grant-Fourth-Forbes 1043338220#0 1043338220#1 1043338220#2 54448157#0 Grant-Forbes-Fifth 54448157#2 54448157#3 625220730#0 Grant-Fifth-Oliver 625220730#2 625220730#3 625220730#4 Grant-Oliver-Sixth" />
<vehicle type="noVar" depart="53" id="Grant-Fourth-Forbes.547" route="route_Grant-Fourth-Forbes.547" />
<route id="route_Fifth-Smithfield-WilliamPenn.82" edges="Fifth-Smithfield-WilliamPenn -55169716#5 -55169716#4 Fifth-WilliamPenn-Grant -55169716#1 -55169716#0 625220729 625839982#0 625839982#1 Fifth-Grant-Bigelow" />
<vehicle type="noVar" depart="55" id="Fifth-Smithfield-WilliamPenn.82" route="route_Fifth-Smithfield-WilliamPenn.82" />
<route id="route_Fifth-Bigelow-Grant.84" edges="Fifth-Bigelow-Grant -625839982#1 -625839982#0 -625220729 55169716#0 55169716#1 Fifth-Grant-WilliamPenn 55169716#4 55169716#5 Fifth-WilliamPenn-Smithfield" />
<vehicle type="noVar" depart="59" id="Fifth-Bigelow-Grant.84" route="route_Fifth-Bigelow-Grant.84" />
<route id="route_Grant-Fourth-Forbes.188" edges="Grant-Fourth-Forbes 1043338220#0 1043338220#1 1043338220#2 54448157#0 Grant-Forbes-Fifth 54448157#2 54448157#3 -625220729 55169716#0 55169716#1 Fifth-Grant-WilliamPenn 55169716#4 55169716#5 Fifth-WilliamPenn-Smithfield" />
<vehicle type="noVar" depart="60" id="Grant-Fourth-Forbes.188" route="route_Grant-Fourth-Forbes.188" />
<route id="route_Grant-Sixth-Oliver.331" edges="Grant-Sixth-Oliver 466749735#8 466749735#9 466749735#10 Grant-Oliver-Fifth 466749735#12 466749735#13 625220729 625839982#0 625839982#1 Fifth-Grant-Bigelow" />
<vehicle type="noVar" depart="61" id="Grant-Sixth-Oliver.331" route="route_Grant-Sixth-Oliver.331" />
<route id="route_Grant-Sixth-Oliver.111" edges="Grant-Sixth-Oliver 466749735#8 466749735#9 466749735#10 Grant-Oliver-Fifth 466749735#12 466749735#13 625497926#0 Grant-Fifth-Forbes 625497926#2 625497926#3 625497926#4 Grant-Forbes-Fourth" />
<vehicle type="noVar" depart="64" id="Grant-Sixth-Oliver.111" route="route_Grant-Sixth-Oliver.111" />
<route id="route_Grant-Fourth-Forbes.329" edges="Grant-Fourth-Forbes 1043338220#0 1043338220#1 1043338220#2 54448157#0 Grant-Forbes-Fifth 54448157#2 54448157#3 625220730#0 Grant-Fifth-Oliver 625220730#2 625220730#3 625220730#4 Grant-Oliver-Sixth" />
<vehicle type="noVar" depart="65" id="Grant-Fourth-Forbes.329" route="route_Grant-Fourth-Forbes.329" />
<route id="route_Grant-Fourth-Forbes.560" edges="Grant-Fourth-Forbes 1043338220#0 1043338220#1 1043338220#2 54448157#0 Grant-Forbes-Fifth 54448157#2 54448157#3 625220730#0 Grant-Fifth-Oliver 625220730#2 625220730#3 625220730#4 Grant-Oliver-Sixth" />
<vehicle type="noVar" depart="68" id="Grant-Fourth-Forbes.560" route="route_Grant-Fourth-Forbes.560" />
<route id="route_Fifth-Bigelow-Grant.241" edges="Fifth-Bigelow-Grant -625839982#1 -625839982#0 -625220729 55169716#0 55169716#1 Fifth-Grant-WilliamPenn 55169716#4 55169716#5 Fifth-WilliamPenn-Smithfield" />
<vehicle type="noVar" depart="68" id="Fifth-Bigelow-Grant.241" route="route_Fifth-Bigelow-Grant.241" />
<route id="route_Sixth-Smithfield-WilliamPenn.282" edges="Sixth-Smithfield-WilliamPenn -661624479#0 -488125922#4 Sixth-WilliamPenn-Grant" />
<vehicle type="noVar" depart="70" id="Sixth-Smithfield-WilliamPenn.282" route="route_Sixth-Smithfield-WilliamPenn.282" />
<route id="route_Forbes-Bigelow-Grant.326" edges="Forbes-Bigelow-Grant -25795333#1 -25795333#0 -1043338221 625497926#4 Grant-Forbes-Fourth" />
<vehicle type="noVar" depart="70" id="Forbes-Bigelow-Grant.326" route="route_Forbes-Bigelow-Grant.326" />
<route id="route_Grant-Fourth-Forbes.373" edges="Grant-Fourth-Forbes 1043338220#0 1043338220#1 1043338220#2 54448157#0 Grant-Forbes-Fifth 54448157#2 54448157#3 625220730#0 Grant-Fifth-Oliver 625220730#2 625220730#3 625220730#4 Grant-Oliver-Sixth" />
<vehicle type="noVar" depart="71" id="Grant-Fourth-Forbes.373" route="route_Grant-Fourth-Forbes.373" />
<route id="route_Forbes-Bigelow-Grant.4" edges="Forbes-Bigelow-Grant -25795333#1 -25795333#0 -1043338221 625497926#4 Grant-Forbes-Fourth" />
<vehicle type="noVar" depart="72" id="Forbes-Bigelow-Grant.4" route="route_Forbes-Bigelow-Grant.4" />
<route id="route_Grant-Fourth-Forbes.599" edges="Grant-Fourth-Forbes 1043338220#0 1043338220#1 1043338220#2 -1043338221 11729055#0 11729055#1 Forbes-Grant-WilliamPenn 11729055#5 Forbes-WilliamPenn-Smithfield" />
<vehicle type="noVar" depart="74" id="Grant-Fourth-Forbes.599" route="route_Grant-Fourth-Forbes.599" />
<route id="route_Grant-Fourth-Forbes.398" edges="Grant-Fourth-Forbes 1043338220#0 1043338220#1 1043338220#2 54448157#0 Grant-Forbes-Fifth 54448157#2 54448157#3 625220730#0 Grant-Fifth-Oliver 625220730#2 625220730#3 625220730#4 Grant-Oliver-Sixth" />
<vehicle type="noVar" depart="75" id="Grant-Fourth-Forbes.398" route="route_Grant-Fourth-Forbes.398" />
<route id="route_Grant-Sixth-Oliver.306" edges="Grant-Sixth-Oliver 466749735#8 466749735#9 466749735#10 Grant-Oliver-Fifth 466749735#12 466749735#13 625497926#0 Grant-Fifth-Forbes 625497926#2 625497926#3 625497926#4 Grant-Forbes-Fourth" />
<vehicle type="noVar" depart="75" id="Grant-Sixth-Oliver.306" route="route_Grant-Sixth-Oliver.306" />
<route id="route_Fifth-Bigelow-Grant.2" edges="Fifth-Bigelow-Grant -625839982#1 -625839982#0 -625220729 55169716#0 55169716#1 Fifth-Grant-WilliamPenn 55169716#4 55169716#5 Fifth-WilliamPenn-Smithfield" />
<vehicle type="noVar" depart="75" id="Fifth-Bigelow-Grant.2" route="route_Fifth-Bigelow-Grant.2" />
<route id="route_Forbes-Bigelow-Grant.188" edges="Forbes-Bigelow-Grant -25795333#1 -25795333#0 -1043338221 625497926#4 Grant-Forbes-Fourth" />
<vehicle type="noVar" depart="76" id="Forbes-Bigelow-Grant.188" route="route_Forbes-Bigelow-Grant.188" />
<route id="route_Fifth-Bigelow-Grant.246" edges="Fifth-Bigelow-Grant -625839982#1 -625839982#0 -625220729 55169716#0 55169716#1 Fifth-Grant-WilliamPenn 55169716#4 55169716#5 Fifth-WilliamPenn-Smithfield" />
<vehicle type="noVar" depart="78" id="Fifth-Bigelow-Grant.246" route="route_Fifth-Bigelow-Grant.246" />
<route id="route_Grant-Fourth-Forbes.227" edges="Grant-Fourth-Forbes 1043338220#0 1043338220#1 1043338220#2 -1043338221 11729055#0 11729055#1 Forbes-Grant-WilliamPenn 11729055#5 Forbes-WilliamPenn-Smithfield" />
<vehicle type="noVar" depart="78" id="Grant-Fourth-Forbes.227" route="route_Grant-Fourth-Forbes.227" />
<route id="route_Forbes-Bigelow-Grant.317" edges="Forbes-Bigelow-Grant -25795333#1 -25795333#0 -1043338221 11729055#0 11729055#1 Forbes-Grant-WilliamPenn 11729055#5 203322566#2 WilliamPenn-Forbes-Fourth" />
<vehicle type="noVar" depart="79" id="Forbes-Bigelow-Grant.317" route="route_Forbes-Bigelow-Grant.317" />
<route id="route_Fifth-Smithfield-WilliamPenn.76" edges="Fifth-Smithfield-WilliamPenn -55169716#5 -55169716#4 Fifth-WilliamPenn-Grant -55169716#1 -55169716#0 625220729 625839982#0 625839982#1 Fifth-Grant-Bigelow" />
<vehicle type="noVar" depart="85" id="Fifth-Smithfield-WilliamPenn.76" route="route_Fifth-Smithfield-WilliamPenn.76" />
<route id="route_Forbes-Bigelow-Grant.294" edges="Forbes-Bigelow-Grant -25795333#1 -25795333#0 -1043338221 11729055#0 11729055#1 Forbes-Grant-WilliamPenn 11729055#5 Forbes-WilliamPenn-Smithfield" />
<vehicle type="noVar" depart="86" id="Forbes-Bigelow-Grant.294" route="route_Forbes-Bigelow-Grant.294" />
<route id="route_Grant-Fourth-Forbes.324" edges="Grant-Fourth-Forbes 1043338220#0 1043338220#1 1043338220#2 54448157#0 Grant-Forbes-Fifth 54448157#2 54448157#3 625220730#0 Grant-Fifth-Oliver 625220730#2 625220730#3 625220730#4 Grant-Oliver-Sixth" />
<vehicle type="noVar" depart="86" id="Grant-Fourth-Forbes.324" route="route_Grant-Fourth-Forbes.324" />
<route id="route_Fifth-Bigelow-Grant.221" edges="Fifth-Bigelow-Grant -625839982#1 -625839982#0 -625220729 55169716#0 55169716#1 Fifth-Grant-WilliamPenn 55169716#4 55169716#5 Fifth-WilliamPenn-Smithfield" />
<vehicle type="noVar" depart="87" id="Fifth-Bigelow-Grant.221" route="route_Fifth-Bigelow-Grant.221" />
<route id="route_Grant-Sixth-Oliver.302" edges="Grant-Sixth-Oliver 466749735#8 466749735#9 466749735#10 Grant-Oliver-Fifth 466749735#12 466749735#13 625497926#0 Grant-Fifth-Forbes 625497926#2 625497926#3 625497926#4 Grant-Forbes-Fourth" />
<vehicle type="noVar" depart="88" id="Grant-Sixth-Oliver.302" route="route_Grant-Sixth-Oliver.302" />
<route id="route_Sixth-Grant-WilliamPenn.265" edges="Sixth-Grant-WilliamPenn 488125922#4 661624479#0 Sixth-WilliamPenn-Smithfield" />
<vehicle type="noVar" depart="89" id="Sixth-Grant-WilliamPenn.265" route="route_Sixth-Grant-WilliamPenn.265" />
<route id="route_Fifth-Bigelow-Grant.387" edges="Fifth-Bigelow-Grant -625839982#1 -625839982#0 -625220729 55169716#0 55169716#1 Fifth-Grant-WilliamPenn 55169716#4 55169716#5 Fifth-WilliamPenn-Smithfield" />
<vehicle type="noVar" depart="90" id="Fifth-Bigelow-Grant.387" route="route_Fifth-Bigelow-Grant.387" />
<route id="route_Fifth-Smithfield-WilliamPenn.100" edges="Fifth-Smithfield-WilliamPenn -55169716#5 -55169716#4 Fifth-WilliamPenn-Grant -55169716#1 -55169716#0 625220729 625839982#0 625839982#1 Fifth-Grant-Bigelow" />
<vehicle type="noVar" depart="90" id="Fifth-Smithfield-WilliamPenn.100" route="route_Fifth-Smithfield-WilliamPenn.100" />
<route id="route_Sixth-Grant-WilliamPenn.32" edges="Sixth-Grant-WilliamPenn 488125922#4 661624479#0 Sixth-WilliamPenn-Smithfield" />
<vehicle type="noVar" depart="92" id="Sixth-Grant-WilliamPenn.32" route="route_Sixth-Grant-WilliamPenn.32" />
<route id="route_Oliver-Smithfield-WilliamPenn.8" edges="Oliver-Smithfield-WilliamPenn 1073294205#2 1065071639#0 Oliver-WilliamPenn-Grant 1065071639#2 1065071639#3 1065071639#4 625220730#4 Grant-Oliver-Sixth" />
<vehicle type="noVar" depart="92" id="Oliver-Smithfield-WilliamPenn.8" route="route_Oliver-Smithfield-WilliamPenn.8" />
<route id="route_Fifth-Bigelow-Grant.63" edges="Fifth-Bigelow-Grant -625839982#1 -625839982#0 -625220729 55169716#0 55169716#1 Fifth-Grant-WilliamPenn 55169716#4 55169716#5 Fifth-WilliamPenn-Smithfield" />
<vehicle type="noVar" depart="94" id="Fifth-Bigelow-Grant.63" route="route_Fifth-Bigelow-Grant.63" />
<route id="route_Oliver-Smithfield-WilliamPenn.114" edges="Oliver-Smithfield-WilliamPenn 1073294205#2 1065071639#0 Oliver-WilliamPenn-Grant 1065071639#2 1065071639#3 1065071639#4 625220730#4 Grant-Oliver-Sixth" />
<vehicle type="noVar" depart="95" id="Oliver-Smithfield-WilliamPenn.114" route="route_Oliver-Smithfield-WilliamPenn.114" />
<route id="route_WilliamPenn-Seventh-Sixth.114" edges="WilliamPenn-Seventh-Sixth 11729008#5 1065071640#0 WilliamPenn-Sixth-Oliver 1065071640#2 661624478#0 WilliamPenn-Oliver-Fifth 661624478#2 661624478#3 11722268#0 11722268#1 11722268#2 WilliamPenn-Fifth-Forbes 203322566#1 203322566#2 WilliamPenn-Forbes-Fourth" />
<vehicle type="noVar" depart="97" id="WilliamPenn-Seventh-Sixth.114" route="route_WilliamPenn-Seventh-Sixth.114" />
<route id="route_Grant-Sixth-Oliver.122" edges="Grant-Sixth-Oliver 466749735#8 466749735#9 466749735#10 Grant-Oliver-Fifth 466749735#12 466749735#13 625497926#0 Grant-Fifth-Forbes 625497926#2 625497926#3 625497926#4 Grant-Forbes-Fourth" />
<vehicle type="noVar" depart="97" id="Grant-Sixth-Oliver.122" route="route_Grant-Sixth-Oliver.122" />
<route id="route_Fifth-Bigelow-Grant.186" edges="Fifth-Bigelow-Grant -625839982#1 -625839982#0 -625220729 55169716#0 55169716#1 Fifth-Grant-WilliamPenn 55169716#4 55169716#5 Fifth-WilliamPenn-Smithfield" />
<vehicle type="noVar" depart="97" id="Fifth-Bigelow-Grant.186" route="route_Fifth-Bigelow-Grant.186" />
<route id="route_Grant-Fourth-Forbes.277" edges="Grant-Fourth-Forbes 1043338220#0 1043338220#1 1043338220#2 54448157#0 Grant-Forbes-Fifth 54448157#2 54448157#3 625220730#0 Grant-Fifth-Oliver 625220730#2 625220730#3 625220730#4 Grant-Oliver-Sixth" />
<vehicle type="noVar" depart="99" id="Grant-Fourth-Forbes.277" route="route_Grant-Fourth-Forbes.277" />
<route id="route_Fifth-Bigelow-Grant.314" edges="Fifth-Bigelow-Grant -625839982#1 -625839982#0 -625220729 55169716#0 55169716#1 Fifth-Grant-WilliamPenn 55169716#4 55169716#5 Fifth-WilliamPenn-Smithfield" />
<vehicle type="noVar" depart="100" id="Fifth-Bigelow-Grant.314" route="route_Fifth-Bigelow-Grant.314" />
<route id="route_Grant-Sixth-Oliver.79" edges="Grant-Sixth-Oliver 466749735#8 466749735#9 466749735#10 Grant-Oliver-Fifth 466749735#12 466749735#13 625497926#0 Grant-Fifth-Forbes 625497926#2 625497926#3 11729055#0 11729055#1 Forbes-Grant-WilliamPenn 11729055#5 Forbes-WilliamPenn-Smithfield" />
<vehicle type="noVar" depart="100" id="Grant-Sixth-Oliver.79" route="route_Grant-Sixth-Oliver.79" />
<route id="route_Grant-Fourth-Forbes.53" edges="Grant-Fourth-Forbes 1043338220#0 1043338220#1 1043338220#2 25795333#0 25795333#1 Forbes-Grant-Bigelow" />
<vehicle type="noVar" depart="102" id="Grant-Fourth-Forbes.53" route="route_Grant-Fourth-Forbes.53" />
<route id="route_Oliver-Smithfield-WilliamPenn.18" edges="Oliver-Smithfield-WilliamPenn 1073294205#2 1065071639#0 Oliver-WilliamPenn-Grant 1065071639#2 1065071639#3 1065071639#4 625220730#4 Grant-Oliver-Sixth" />
<vehicle type="noVar" depart="102" id="Oliver-Smithfield-WilliamPenn.18" route="route_Oliver-Smithfield-WilliamPenn.18" />
<route id="route_Grant-Fourth-Forbes.662" edges="Grant-Fourth-Forbes 1043338220#0 1043338220#1 1043338220#2 54448157#0 Grant-Forbes-Fifth 54448157#2 54448157#3 625220730#0 Grant-Fifth-Oliver 625220730#2 625220730#3 625220730#4 Grant-Oliver-Sixth" />
<vehicle type="noVar" depart="105" id="Grant-Fourth-Forbes.662" route="route_Grant-Fourth-Forbes.662" />
<route id="route_Grant-Fourth-Forbes.590" edges="Grant-Fourth-Forbes 1043338220#0 1043338220#1 1043338220#2 -1043338221 11729055#0 11729055#1 Forbes-Grant-WilliamPenn 11729055#5 203322566#2 WilliamPenn-Forbes-Fourth" />
<vehicle type="noVar" depart="108" id="Grant-Fourth-Forbes.590" route="route_Grant-Fourth-Forbes.590" />
<route id="route_Forbes-Bigelow-Grant.44" edges="Forbes-Bigelow-Grant -25795333#1 -25795333#0 -1043338221 11729055#0 11729055#1 Forbes-Grant-WilliamPenn 11729055#5 Forbes-WilliamPenn-Smithfield" />
<vehicle type="noVar" depart="108" id="Forbes-Bigelow-Grant.44" route="route_Forbes-Bigelow-Grant.44" />
<route id="route_Sixth-Grant-WilliamPenn.328" edges="Sixth-Grant-WilliamPenn 488125922#4 661624479#0 Sixth-WilliamPenn-Smithfield" />
<vehicle type="noVar" depart="109" id="Sixth-Grant-WilliamPenn.328" route="route_Sixth-Grant-WilliamPenn.328" />
<route id="route_Grant-Sixth-Oliver.452" edges="Grant-Sixth-Oliver 466749735#8 466749735#9 466749735#10 Grant-Oliver-Fifth 466749735#12 466749735#13 625497926#0 Grant-Fifth-Forbes 625497926#2 625497926#3 625497926#4 Grant-Forbes-Fourth" />
<vehicle type="noVar" depart="111" id="Grant-Sixth-Oliver.452" route="route_Grant-Sixth-Oliver.452" />