<?xml version="1.0" encoding="UTF-8"?>
<routes xmlns:xsi="http://www.w3.org/2001/XMLSchema-instance" xsi:noNamespaceSchemaLocation="http://sumo.dlr.de/xsd/routes_file.xsd">

<vType id="noVar" speedFactor="1.0" speedDev="0.0"/>
<trip type="noVar" depart="1" id="Sixth-RHS-Ross.82" from="Sixth-RHS-Ross" to="Ross-Sixth-Seventh" />
<trip type="noVar" depart="2" id="Sixth-Smithfield-WilliamPenn.367" from="Sixth-Smithfield-WilliamPenn" to="Ross-Sixth-Seventh" />
<trip type="noVar" depart="2" id="Grant-Fourth-Forbes.472" from="Grant-Fourth-Forbes" to="Grant-Sixth-Seventh" />
<trip type="noVar" depart="4" id="Ross-Seventh-Sixth.170" from="Ross-Seventh-Sixth" to="Grant-Forbes-Fourth" />
<trip type="noVar" depart="4" id="Fifth-RHS-Ross.386" from="Fifth-RHS-Ross" to="WilliamPenn-Forbes-Fourth" />
<trip type="noVar" depart="5" id="Sixth-Smithfield-WilliamPenn.321" from="Sixth-Smithfield-WilliamPenn" to="Sixth-Ross-RHS" />
<trip type="noVar" depart="5" id="Grant-Fourth-Forbes.36" from="Grant-Fourth-Forbes" to="Sixth-Ross-RHS" />
<trip type="noVar" depart="6" id="Oliver-Smithfield-WilliamPenn.115" from="Oliver-Smithfield-WilliamPenn" to="Grant-Forbes-Fourth" />
<trip type="noVar" depart="6" id="Sixth-RHS-Ross.129" from="Sixth-RHS-Ross" to="Ross-Sixth-Seventh" />
<trip type="noVar" depart="7" id="WilliamPenn-Seventh-Sixth.174" from="WilliamPenn-Seventh-Sixth" to="Ross-Forbes-Fourth" />
<trip type="noVar" depart="7" id="Ross-Seventh-Sixth.255" from="Ross-Seventh-Sixth" to="Sixth-WilliamPenn-Smithfield" />
<trip type="noVar" depart="7" id="Sixth-RHS-Ross.53" from="Sixth-RHS-Ross" to="Grant-Forbes-Fourth" />
<trip type="noVar" depart="8" id="Grant-Seventh-Sixth.13" from="Grant-Seventh-Sixth" to="Grant-Forbes-Fourth" />
<trip type="noVar" depart="8" id="WilliamPenn-Seventh-Sixth.34" from="WilliamPenn-Seventh-Sixth" to="Grant-Sixth-Seventh" />
<trip type="noVar" depart="8" id="Ross-Seventh-Sixth.215" from="Ross-Seventh-Sixth" to="Forbes-WilliamPenn-Smithfield" />
<trip type="noVar" depart="8" id="Ross-Fourth-Forbes.483" from="Ross-Fourth-Forbes" to="Forbes-WilliamPenn-Smithfield" />
<trip type="noVar" depart="9" id="Grant-Seventh-Sixth.14" from="Grant-Seventh-Sixth" to="Grant-Forbes-Fourth" />
<trip type="noVar" depart="9" id="Grant-Seventh-Sixth.33" from="Grant-Seventh-Sixth" to="Grant-Forbes-Fourth" />
<trip type="noVar" depart="9" id="Ross-Seventh-Sixth.84" from="Ross-Seventh-Sixth" to="Grant-Sixth-Seventh" />
<trip type="noVar" depart="10" id="Ross-Fourth-Forbes.198" from="Ross-Fourth-Forbes" to="Ross-Sixth-Seventh" />
<trip type="noVar" depart="13" id="Fifth-RHS-Ross.388" from="Fifth-RHS-Ross" to="Grant-Sixth-Seventh" />
<trip type="noVar" depart="15" id="Sixth-RHS-Ross.436" from="Sixth-RHS-Ross" to="Grant-Sixth-Seventh" />
<trip type="noVar" depart="16" id="Oliver-Smithfield-WilliamPenn.2" from="Oliver-Smithfield-WilliamPenn" to="Forbes-Ross-RHS" />
<trip type="noVar" depart="16" id="Ross-Fourth-Forbes.64" from="Ross-Fourth-Forbes" to="Sixth-Ross-RHS" />
<trip type="noVar" depart="17" id="Grant-Seventh-Sixth.279" from="Grant-Seventh-Sixth" to="Grant-Forbes-Fourth" />
<trip type="noVar" depart="17" id="Ross-Seventh-Sixth.546" from="Ross-Seventh-Sixth" to="Sixth-Ross-RHS" />
<trip type="noVar" depart="17" id="Sixth-RHS-Ross.444" from="Sixth-RHS-Ross" to="Sixth-WilliamPenn-Smithfield" />
<trip type="noVar" depart="17" id="Fifth-RHS-Ross.13" from="Fifth-RHS-Ross" to="Fifth-WilliamPenn-Smithfield" />
<trip type="noVar" depart="18" id="Sixth-RHS-Ross.137" from="Sixth-RHS-Ross" to="Sixth-WilliamPenn-Smithfield" />
<trip type="noVar" depart="18" id="Forbes-RHS-Ross.115" from="Forbes-RHS-Ross" to="Grant-Forbes-Fourth" />
<trip type="noVar" depart="19" id="Sixth-Smithfield-WilliamPenn.425" from="Sixth-Smithfield-WilliamPenn" to="Grant-Sixth-Seventh" />
<trip type="noVar" depart="19" id="Forbes-RHS-Ross.109" from="Forbes-RHS-Ross" to="Forbes-WilliamPenn-Smithfield" />
<trip type="noVar" depart="19" id="Ross-Fourth-Forbes.66" from="Ross-Fourth-Forbes" to="Forbes-Ross-RHS" />
<trip type="noVar" depart="20" id="Ross-Seventh-Sixth.334" from="Ross-Seventh-Sixth" to="Ross-Forbes-Fourth" />
<trip type="noVar" depart="21" id="Grant-Seventh-Sixth.96" from="Grant-Seventh-Sixth" to="Grant-Forbes-Fourth" />
<trip type="noVar" depart="21" id="Grant-Seventh-Sixth.566" from="Grant-Seventh-Sixth" to="Ross-Sixth-Seventh" />
<trip type="noVar" depart="21" id="Grant-Fourth-Forbes.397" from="Grant-Fourth-Forbes" to="Ross-Forbes-Fourth" />
<trip type="noVar" depart="21" id="Sixth-RHS-Ross.398" from="Sixth-RHS-Ross" to="Ross-Sixth-Seventh" />
<trip type="noVar" depart="21" id="Ross-Fourth-Forbes.479" from="Ross-Fourth-Forbes" to="Ross-Sixth-Seventh" />
<trip type="noVar" depart="22" id="Oliver-Smithfield-WilliamPenn.228" from="Oliver-Smithfield-WilliamPenn" to="Grant-Forbes-Fourth" />
<trip type="noVar" depart="23" id="Forbes-Smithfield-WilliamPenn.17" from="Forbes-Smithfield-WilliamPenn" to="WilliamPenn-Forbes-Fourth" />
<trip type="noVar" depart="23" id="Sixth-RHS-Ross.218" from="Sixth-RHS-Ross" to="Sixth-WilliamPenn-Smithfield" />
<trip type="noVar" depart="24" id="Forbes-RHS-Ross.194" from="Forbes-RHS-Ross" to="WilliamPenn-Forbes-Fourth" />
<trip type="noVar" depart="25" id="WilliamPenn-Seventh-Sixth.189" from="WilliamPenn-Seventh-Sixth" to="Sixth-WilliamPenn-Smithfield" />
<trip type="noVar" depart="26" id="Ross-Seventh-Sixth.53" from="Ross-Seventh-Sixth" to="Grant-Sixth-Seventh" />
<trip type="noVar" depart="26" id="Forbes-RHS-Ross.341" from="Forbes-RHS-Ross" to="Grant-Forbes-Fourth" />
<trip type="noVar" depart="27" id="Forbes-RHS-Ross.586" from="Forbes-RHS-Ross" to="Ross-Sixth-Seventh" />
<trip type="noVar" depart="28" id="Oliver-Smithfield-WilliamPenn.249" from="Oliver-Smithfield-WilliamPenn" to="Fifth-WilliamPenn-Smithfield" />
<trip type="noVar" depart="28" id="Fifth-Smithfield-WilliamPenn.19" from="Fifth-Smithfield-WilliamPenn" to="Grant-Sixth-Seventh" />
<trip type="noVar" depart="31" id="WilliamPenn-Seventh-Sixth.62" from="WilliamPenn-Seventh-Sixth" to="Grant-Sixth-Seventh" />
<trip type="noVar" depart="34" id="Grant-Fourth-Forbes.216" from="Grant-Fourth-Forbes" to="Sixth-WilliamPenn-Smithfield" />
<trip type="noVar" depart="35" id="Grant-Fourth-Forbes.310" from="Grant-Fourth-Forbes" to="Forbes-Ross-RHS" />
<trip type="noVar" depart="36" id="Grant-Seventh-Sixth.245" from="Grant-Seventh-Sixth" to="Fifth-WilliamPenn-Smithfield" />
<trip type="noVar" depart="36" id="Forbes-RHS-Ross.256" from="Forbes-RHS-Ross" to="WilliamPenn-Forbes-Fourth" />
<trip type="noVar" depart="37" id="Sixth-Smithfield-WilliamPenn.72" from="Sixth-Smithfield-WilliamPenn" to="Ross-Forbes-Fourth" />
<trip type="noVar" depart="37" id="Forbes-RHS-Ross.264" from="Forbes-RHS-Ross" to="Ross-Forbes-Fourth" />
<trip type="noVar" depart="37" id="Ross-Fourth-Forbes.9" from="Ross-Fourth-Forbes" to="Forbes-Ross-RHS" />
<trip type="noVar" depart="38" id="Grant-Seventh-Sixth.400" from="Grant-Seventh-Sixth" to="Grant-Forbes-Fourth" />
<trip type="noVar" depart="38" id="WilliamPenn-Seventh-Sixth.177" from="WilliamPenn-Seventh-Sixth" to="Sixth-Ross-RHS" />
<trip type="noVar" depart="38" id="Forbes-RHS-Ross.46" from="Forbes-RHS-Ross" to="Grant-Forbes-Fourth" />
<trip type="noVar" depart="39" id="Grant-Seventh-Sixth.355" from="Grant-Seventh-Sixth" to="Grant-Forbes-Fourth" />
<trip type="noVar" depart="40" id="WilliamPenn-Seventh-Sixth.23" from="WilliamPenn-Seventh-Sixth" to="Oliver-WilliamPenn-Smithfield" />
<trip type="noVar" depart="40" id="Grant-Fourth-Forbes.271" from="Grant-Fourth-Forbes" to="Grant-Sixth-Seventh" />
<trip type="noVar" depart="42" id="Oliver-Smithfield-WilliamPenn.306" from="Oliver-Smithfield-WilliamPenn" to="WilliamPenn-Forbes-Fourth" />
<trip type="noVar" depart="43" id="Sixth-RHS-Ross.158" from="Sixth-RHS-Ross" to="Ross-Sixth-Seventh" />
<trip type="noVar" depart="43" id="Forbes-RHS-Ross.435" from="Forbes-RHS-Ross" to="Ross-Forbes-Fourth" />
<trip type="noVar" depart="43" id="Ross-Fourth-Forbes.413" from="Ross-Fourth-Forbes" to="Ross-Sixth-Seventh" />
<trip type="noVar" depart="44" id="Grant-Seventh-Sixth.534" from="Grant-Seventh-Sixth" to="Sixth-Ross-RHS" />
<trip type="noVar" depart="46" id="Sixth-RHS-Ross.173" from="Sixth-RHS-Ross" to="Sixth-WilliamPenn-Smithfield" />
<trip type="noVar" depart="47" id="Sixth-Smithfield-WilliamPenn.252" from="Sixth-Smithfield-WilliamPenn" to="Sixth-Ross-RHS" />
<trip type="noVar" depart="47" id="Fifth-RHS-Ross.156" from="Fifth-RHS-Ross" to="Sixth-Ross-RHS" />
<trip type="noVar" depart="47" id="Ross-Fourth-Forbes.327" from="Ross-Fourth-Forbes" to="Forbes-Ross-RHS" />
<trip type="noVar" depart="50" id="Grant-Seventh-Sixth.338" from="Grant-Seventh-Sixth" to="Grant-Forbes-Fourth" />
<trip type="noVar" depart="50" id="Oliver-Smithfield-WilliamPenn.209" from="Oliver-Smithfield-WilliamPenn" to="WilliamPenn-Forbes-Fourth" />
<trip type="noVar" depart="51" id="WilliamPenn-Seventh-Sixth.152" from="WilliamPenn-Seventh-Sixth" to="WilliamPenn-Forbes-Fourth" />
<trip type="noVar" depart="51" id="Fifth-Smithfield-WilliamPenn.85" from="Fifth-Smithfield-WilliamPenn" to="Sixth-WilliamPenn-Smithfield" />
<trip type="noVar" depart="51" id="Ross-Seventh-Sixth.466" from="Ross-Seventh-Sixth" to="WilliamPenn-Forbes-Fourth" />
<trip type="noVar" depart="53" id="Grant-Seventh-Sixth.653" from="Grant-Seventh-Sixth" to="Sixth-Ross-RHS" />
<trip type="noVar" depart="53" id="Ross-Seventh-Sixth.256" from="Ross-Seventh-Sixth" to="Sixth-WilliamPenn-Smithfield" />
<trip type="noVar" depart="54" id="Forbes-RHS-Ross.414" from="Forbes-RHS-Ross" to="Ross-Forbes-Fourth" />
<trip type="noVar" depart="55" id="WilliamPenn-Seventh-Sixth.11" from="WilliamPenn-Seventh-Sixth" to="WilliamPenn-Forbes-Fourth" />
<trip type="noVar" depart="56" id="Grant-Seventh-Sixth.71" from="Grant-Seventh-Sixth" to="Fifth-WilliamPenn-Smithfield" />
<trip type="noVar" depart="57" id="Grant-Fourth-Forbes.404" from="Grant-Fourth-Forbes" to="Sixth-Ross-RHS" />
<trip type="noVar" depart="57" id="Ross-Seventh-Sixth.74" from="Ross-Seventh-Sixth" to="Ross-Forbes-Fourth" />
<trip type="noVar" depart="57" id="Ross-Seventh-Sixth.602" from="Ross-Seventh-Sixth" to="Grant-Forbes-Fourth" />
<trip type="noVar" depart="58" id="Fifth-RHS-Ross.346" from="Fifth-RHS-Ross" to="WilliamPenn-Forbes-Fourth" />
<trip type="noVar" depart="59" id="Ross-Seventh-Sixth.440" from="Ross-Seventh-Sixth" to="Grant-Sixth-Seventh" />
<trip type="noVar" depart="59" id="Sixth-RHS-Ross.350" from="Sixth-RHS-Ross" to="Ross-Sixth-Seventh" />
<trip type="noVar" depart="60" id="Oliver-Smithfield-WilliamPenn.316" from="Oliver-Smithfield-WilliamPenn" to="Grant-Sixth-Seventh" />
<trip type="noVar" depart="61" id="Grant-Seventh-Sixth.573" from="Grant-Seventh-Sixth" to="Sixth-Ross-RHS" />
<trip type="noVar" depart="61" id="Fifth-RHS-Ross.289" from="Fifth-RHS-Ross" to="Ross-Forbes-Fourth" />
<trip type="noVar" depart="62" id="Grant-Seventh-Sixth.252" from="Grant-Seventh-Sixth" to="Grant-Forbes-Fourth" />
<trip type="noVar" depart="63" id="Oliver-Smithfield-WilliamPenn.28" from="Oliver-Smithfield-WilliamPenn" to="Sixth-Ross-RHS" />
<trip type="noVar" depart="64" id="Grant-Seventh-Sixth.357" from="Grant-Seventh-Sixth" to="Grant-Forbes-Fourth" />
<trip type="noVar" depart="64" id="Oliver-Smithfield-WilliamPenn.147" from="Oliver-Smithfield-WilliamPenn" to="Grant-Sixth-Seventh" />
<trip type="noVar" depart="65" id="WilliamPenn-Seventh-Sixth.73" from="WilliamPenn-Seventh-Sixth" to="Oliver-WilliamPenn-Smithfield" />
<trip type="noVar" depart="66" id="Grant-Seventh-Sixth.383" from="Grant-Seventh-Sixth" to="Ross-Sixth-Seventh" />
<trip type="noVar" depart="66" id="Sixth-Smithfield-WilliamPenn.111" from="Sixth-Smithfield-WilliamPenn" to="WilliamPenn-Forbes-Fourth" />
<trip type="noVar" depart="67" id="WilliamPenn-Seventh-Sixth.225" from="WilliamPenn-Seventh-Sixth" to="Ross-Sixth-Seventh" />
<trip type="noVar" depart="67" id="Ross-Seventh-Sixth.131" from="Ross-Seventh-Sixth" to="Fifth-WilliamPenn-Smithfield" />
<trip type="noVar" depart="68" id="Grant-Seventh-Sixth.117" from="Grant-Seventh-Sixth" to="Grant-Forbes-Fourth" />
<trip type="noVar" depart="68" id="Sixth-RHS-Ross.64" from="Sixth-RHS-Ross" to="Grant-Sixth-Seventh" />
<trip type="noVar" depart="69" id="Ross-Seventh-Sixth.511" from="Ross-Seventh-Sixth" to="Sixth-WilliamPenn-Smithfield" />
<trip type="noVar" depart="69" id="Sixth-RHS-Ross.115" from="Sixth-RHS-Ross" to="Grant-Sixth-Seventh" />
<trip type="noVar" depart="69" id="Sixth-RHS-Ross.268" from="Sixth-RHS-Ross" to="Sixth-WilliamPenn-Smithfield" />
<trip type="noVar" depart="70" id="Oliver-Smithfield-WilliamPenn.69" from="Oliver-Smithfield-WilliamPenn" to="Grant-Sixth-Seventh" />
<trip type="noVar" depart="70" id="Ross-Fourth-Forbes.70" from="Ross-Fourth-Forbes" to="Ross-Sixth-Seventh" />
<trip type="noVar" depart="71" id="Grant-Fourth-Forbes.525" from="Grant-Fourth-Forbes" to="WilliamPenn-Forbes-Fourth" />
<trip type="noVar" depart="71" id="Forbes-RHS-Ross.351" from="Forbes-RHS-Ross" to="Grant-Forbes-Fourth" />
<trip type="noVar" depart="72" id="Oliver-Smithfield-WilliamPenn.45" from="Oliver-Smithfield-WilliamPenn" to="WilliamPenn-Forbes-Fourth" />
<trip type="noVar" depart="72" id="Forbes-RHS-Ross.226" from="Forbes-RHS-Ross" to="Forbes-WilliamPenn-Smithfield" />
<trip type="noVar" depart="73" id="Grant-Seventh-Sixth.309" from="Grant-Seventh-Sixth" to="Ross-Sixth-Seventh" />
<trip type="noVar" depart="73" id="Forbes-RHS-Ross.326" from="Forbes-RHS-Ross" to="Forbes-WilliamPenn-Smithfield" />
<trip type="noVar" depart="74" id="Fifth-RHS-Ross.94" from="Fifth-RHS-Ross" to="Forbes-WilliamPenn-Smithfield" />
<trip type="noVar" depart="74" id="Forbes-RHS-Ross.491" from="Forbes-RHS-Ross" to="Ross-Forbes-Fourth" />
<trip type="noVar" depart="75" id="Sixth-Smithfield-WilliamPenn.349" from="Sixth-Smithfield-WilliamPenn" to="Grant-Forbes-Fourth" />
<trip type="noVar" depart="75" id="Grant-Fourth-Forbes.73" from="Grant-Fourth-Forbes" to="Ross-Sixth-Seventh" />
<trip type="noVar" depart="75" id="Grant-Fourth-Forbes.100" from="Grant-Fourth-Forbes" to="Fifth-Ross-RHS" />
<trip type="noVar" depart="76" id="Grant-Seventh-Sixth.211" from="Grant-Seventh-Sixth" to="Fifth-Ross-RHS" />
<trip type="noVar" depart="76" id="Oliver-Smithfield-WilliamPenn.93" from="Oliver-Smithfield-WilliamPenn" to="Grant-Sixth-Seventh" />
<trip type="noVar" depart="78" id="Grant-Seventh-Sixth.417" from="Grant-Seventh-Sixth" to="Grant-Forbes-Fourth" />
<trip type="noVar" depart="79" id="Grant-Fourth-Forbes.465" from="Grant-Fourth-Forbes" to="WilliamPenn-Forbes-Fourth" />
<trip type="noVar" depart="79" id="Grant-Fourth-Forbes.515" from="Grant-Fourth-Forbes" to="Forbes-WilliamPenn-Smithfield" />
<trip type="noVar" depart="79" id="Forbes-RHS-Ross.503" from="Forbes-RHS-Ross" to="WilliamPenn-Forbes-Fourth" />
<trip type="noVar" depart="79" id="Ross-Fourth-Forbes.440" from="Ross-Fourth-Forbes" to="Ross-Sixth-Seventh" />
<trip type="noVar" depart="80" id="Fifth-RHS-Ross.34" from="Fifth-RHS-Ross" to="Ross-Forbes-Fourth" />
<trip type="noVar" depart="81" id="Grant-Fourth-Forbes.274" from="Grant-Fourth-Forbes" to="Forbes-Ross-RHS" />
<trip type="noVar" depart="81" id="Ross-Seventh-Sixth.152" from="Ross-Seventh-Sixth" to="Sixth-WilliamPenn-Smithfield" />
<trip type="noVar" depart="81" id="Sixth-RHS-Ross.14" from="Sixth-RHS-Ross" to="Sixth-WilliamPenn-Smithfield" />
<trip type="noVar" depart="81" id="Fifth-RHS-Ross.153" from="Fifth-RHS-Ross" to="Grant-Sixth-Seventh" />
<trip type="noVar" depart="82" id="Grant-Fourth-Forbes.365" from="Grant-Fourth-Forbes" to="Fifth-Ross-RHS" />
<trip type="noVar" depart="82" id="Ross-Seventh-Sixth.509" from="Ross-Seventh-Sixth" to="Fifth-Ross-RHS" />
<trip type="noVar" depart="82" id="Forbes-RHS-Ross.428" from="Forbes-RHS-Ross" to="Ross-Forbes-Fourth" />
<trip type="noVar" depart="84" id="Sixth-Smithfield-WilliamPenn.227" from="Sixth-Smithfield-WilliamPenn" to="Grant-Sixth-Seventh" />
<trip type="noVar" depart="84" id="Oliver-Smithfield-WilliamPenn.25" from="Oliver-Smithfield-WilliamPenn" to="Grant-Sixth-Seventh" />
<trip type="noVar" depart="84" id="Ross-Fourth-Forbes.191" from="Ross-Fourth-Forbes" to="Ross-Sixth-Seventh" />
<trip type="noVar" depart="85" id="Sixth-Smithfield-WilliamPenn.165" from="Sixth-Smithfield-WilliamPenn" to="Fifth-WilliamPenn-Smithfield" />
<trip type="noVar" depart="85" id="Grant-Fifth-Oliver.23" from="Grant-Fifth-Oliver" to="Grant-Sixth-Seventh" />
<trip type="noVar" depart="87" id="Sixth-Smithfield-WilliamPenn.294" from="Sixth-Smithfield-WilliamPenn" to="Sixth-Ross-RHS" />
<trip type="noVar" depart="87" id="Ross-Fourth-Forbes.447" from="Ross-Fourth-Forbes" to="Ross-Sixth-Seventh" />
<trip type="noVar" depart="89" id="Grant-Fourth-Forbes.184" from="Grant-Fourth-Forbes" to="Grant-Sixth-Seventh" />
<trip type="noVar" depart="91" id="Forbes-RHS-Ross.130" from="Forbes-RHS-Ross" to="Grant-Forbes-Fourth" />
<trip type="noVar" depart="92" id="Grant-Seventh-Sixth.429" from="Grant-Seventh-Sixth" to="Grant-Forbes-Fourth" />
<trip type="noVar" depart="93" id="Grant-Fourth-Forbes.183" from="Grant-Fourth-Forbes" to="WilliamPenn-Forbes-Fourth" />
<trip type="noVar" depart="94" id="Grant-Fourth-Forbes.374" from="Grant-Fourth-Forbes" to="Fifth-WilliamPenn-Smithfield" />
<trip type="noVar" depart="94" id="Grant-Fourth-Forbes.405" from="Grant-Fourth-Forbes" to="Forbes-WilliamPenn-Smithfield" />
<trip type="noVar" depart="94" id="Ross-Seventh-Sixth.508" from="Ross-Seventh-Sixth" to="Fifth-WilliamPenn-Smithfield" />
<trip type="noVar" depart="95" id="Grant-Seventh-Sixth.129" from="Grant-Seventh-Sixth" to="Ross-Sixth-Seventh" />
<trip type="noVar" depart="98" id="Grant-Seventh-Sixth.649" from="Grant-Seventh-Sixth" to="Sixth-Ross-RHS" />
<trip type="noVar" depart="98" id="Sixth-Smithfield-WilliamPenn.428" from="Sixth-Smithfield-WilliamPenn" to="Forbes-WilliamPenn-Smithfield" />
<trip type="noVar" depart="98" id="Fifth-RHS-Ross.281" from="Fifth-RHS-Ross" to="Fifth-WilliamPenn-Smithfield" />
<trip type="noVar" depart="98" id="Ross-Fourth-Forbes.147" from="Ross-Fourth-Forbes" to="Sixth-Ross-RHS" />
<trip type="noVar" depart="98" id="Ross-Fourth-Forbes.511" from="Ross-Fourth-Forbes" to="Forbes-Ross-RHS" />
<trip type="noVar" depart="99" id="Oliver-Smithfield-WilliamPenn.57" from="Oliver-Smithfield-WilliamPenn" to="Grant-Sixth-Seventh" />
<trip type="noVar" depart="100" id="Oliver-Smithfield-WilliamPenn.268" from="Oliver-Smithfield-WilliamPenn" to="WilliamPenn-Forbes-Fourth" />
<trip type="noVar" depart="100" id="Grant-Fourth-Forbes.364" from="Grant-Fourth-Forbes" to="Forbes-Ross-RHS" />
<trip type="noVar" depart="101" id="WilliamPenn-Seventh-Sixth.270" from="WilliamPenn-Seventh-Sixth" to="Oliver-WilliamPenn-Smithfield" />
<trip type="noVar" depart="101" id="Fifth-Smithfield-WilliamPenn.87" from="Fifth-Smithfield-WilliamPenn" to="Fifth-Ross-RHS" />
<trip type="noVar" depart="101" id="Fifth-RHS-Ross.132" from="Fifth-RHS-Ross" to="Sixth-Ross-RHS" />
<trip type="noVar" depart="102" id="Ross-Seventh-Sixth.296" from="Ross-Seventh-Sixth" to="Ross-Forbes-Fourth" />
<trip type="noVar" depart="103" id="Grant-Seventh-Sixth.370" from="Grant-Seventh-Sixth" to="WilliamPenn-Forbes-Fourth" />
<trip type="noVar" depart="104" id="Ross-Seventh-Sixth.630" from="Ross-Seventh-Sixth" to="Ross-Forbes-Fourth" />
<trip type="noVar" depart="106" id="WilliamPenn-Seventh-Sixth.21" from="WilliamPenn-Seventh-Sixth" to="Sixth-Ross-RHS" />
<trip type="noVar" depart="106" id="WilliamPenn-Seventh-Sixth.251" from="WilliamPenn-Seventh-Sixth" to="WilliamPenn-Forbes-Fourth" />
<trip type="noVar" depart="107" id="Sixth-Smithfield-WilliamPenn.197" from="Sixth-Smithfield-WilliamPenn" to="Ross-Sixth-Seventh" />
<trip type="noVar" depart="107" id="Grant-Fourth-Forbes.585" from="Grant-Fourth-Forbes" to="Grant-Sixth-Seventh" />
<trip type="noVar" depart="108" id="Grant-Seventh-Sixth.390" from="Grant-Seventh-Sixth" to="Grant-Forbes-Fourth" />
<trip type="noVar" depart="108" id="Fifth-RHS-Ross.271" from="Fifth-RHS-Ross" to="Fifth-WilliamPenn-Smithfield" />
<trip type="noVar" depart="109" id="Grant-Fourth-Forbes.556" from="Grant-Fourth-Forbes" to="Forbes-Ross-RHS" />
<trip type="noVar" depart="109" id="Grant-Fourth-Forbes.567" from="Grant-Fourth-Forbes" to="Grant-Sixth-Seventh" />
<trip type="noVar" depart="109" id="Fifth-RHS-Ross.3" from="Fifth-RHS-Ross" to="Ross-Forbes-Fourth" />
<trip type="noVar" depart="109" id="Ross-Fourth-Forbes.428" from="Ross-Fourth-Forbes" to="WilliamPenn-Forbes-Fourth" />
<trip type="noVar" depart="110" id="Ross-Fourth-Forbes.234" from="Ross-Fourth-Forbes" to="Ross-Sixth-Seventh" />
<trip type="noVar" depart="111" id="Grant-Seventh-Sixth.446" from="Grant-Seventh-Sixth" to="Grant-Forbes-Fourth" />
<trip type="noVar" depart="111" id="WilliamPenn-Seventh-Sixth.127" from="WilliamPenn-Seventh-Sixth" to="Sixth-Ross-RHS" />
<trip type="noVar" depart="111" id="Sixth-Smithfield-WilliamPenn.58" from="Sixth-Smithfield-WilliamPenn" to="Grant-Sixth-Seventh" />
<trip type="noVar" depart="111" id="Oliver-Smithfield-WilliamPenn.291" from="Oliver-Smithfield-WilliamPenn" to="WilliamPenn-Forbes-Fourth" />
<trip type="noVar" depart="111" id="Grant-Fourth-Forbes.436" from="Grant-Fourth-Forbes" to="Forbes-WilliamPenn-Smithfield" />
<trip type="noVar" depart="112" id="Sixth-RHS-Ross.435" from="Sixth-RHS-Ross" to="Fifth-WilliamPenn-Smithfield" />
<trip type="noVar" depart="113" id="Grant-Fourth-Forbes.193" from="Grant-Fourth-Forbes" to="Forbes-Ross-RHS" />
<trip type="noVar" depart="113" id="Forbes-RHS-Ross.374" from="Forbes-RHS-Ross" to="Ross-Forbes-Fourth" />
<trip type="noVar" depart="113" id="Forbes-RHS-Ross.566" from="Forbes-RHS-Ross" to="Forbes-WilliamPenn-Smithfield" />
<trip type="noVar" depart="116" id="WilliamPenn-Seventh-Sixth.92" from="WilliamPenn-Seventh-Sixth" to="Sixth-WilliamPenn-Smithfield" />
<trip type="noVar" depart="117" id="Oliver-Smithfield-WilliamPenn.250" from="Oliver-Smithfield-WilliamPenn" to="Grant-Sixth-Seventh" />
<trip type="noVar" depart="117" id="Sixth-RHS-Ross.315" from="Sixth-RHS-Ross" to="Sixth-WilliamPenn-Smithfield" />
<trip type="noVar" depart="119" id="Grant-Seventh-Sixth.521" from="Grant-Seventh-Sixth" to="Grant-Forbes-Fourth" />
<trip type="noVar" depart="119" id="Grant-Fourth-Forbes.238" from="Grant-Fourth-Forbes" to="Grant-Sixth-Seventh" />
<trip type="noVar" depart="120" id="Sixth-Smithfield-WilliamPenn.63" from="Sixth-Smithfield-WilliamPenn" to="Sixth-Ross-RHS" />
<trip type="noVar" depart="120" id="Forbes-RHS-Ross.94" from="Forbes-RHS-Ross" to="Grant-Forbes-Fourth" />
<trip type="noVar" depart="121" id="Grant-Seventh-Sixth.597" from="Grant-Seventh-Sixth" to="WilliamPenn-Forbes-Fourth" />
<trip type="noVar" depart="121" id="Ross-Seventh-Sixth.475" from="Ross-Seventh-Sixth" to="Forbes-WilliamPenn-Smithfield" />
<trip type="noVar" depart="122" id="Sixth-Smithfield-WilliamPenn.310" from="Sixth-Smithfield-WilliamPenn" to="Ross-Sixth-Seventh" />
<trip type="noVar" depart="122" id="Oliver-Smithfield-WilliamPenn.24" from="Oliver-Smithfield-WilliamPenn" to="Ross-Sixth-Seventh" />
<trip type="noVar" depart="123" id="Grant-Fourth-Forbes.231" from="Grant-Fourth-Forbes" to="Forbes-Ross-RHS" />
<trip type="noVar" depart="123" id="Ross-Seventh-Sixth.132" from="Ross-Seventh-Sixth" to="Sixth-Ross-RHS" />
<trip type="noVar" depart="123" id="Forbes-RHS-Ross.306" from="Forbes-RHS-Ross" to="Ross-Forbes-Fourth" />
<trip type="noVar" depart="123" id="Forbes-RHS-Ross.526" from="Forbes-RHS-Ross" to="Grant-Sixth-Seventh" />
<trip type="noVar" depart="124" id="Grant-Seventh-Sixth.246" from="Grant-Seventh-Sixth" to="Grant-Forbes-Fourth" />
<trip type="noVar" depart="124" id="Sixth-Smithfield-WilliamPenn.26" from="Sixth-Smithfield-WilliamPenn" to="Sixth-Ross-RHS" />
<trip type="noVar" depart="124" id="Grant-Fourth-Forbes.470" from="Grant-Fourth-Forbes" to="Grant-Sixth-Seventh" />
<trip type="noVar" depart="125" id="Grant-Seventh-Sixth.570" from="Grant-Seventh-Sixth" to="Fifth-WilliamPenn-Smithfield" />
<trip type="noVar" depart="126" id="Sixth-RHS-Ross.424" from="Sixth-RHS-Ross" to="Grant-Sixth-Seventh" />
<trip type="noVar" depart="126" id="Fifth-RHS-Ross.345" from="Fifth-RHS-Ross" to="Fifth-WilliamPenn-Smithfield" />
<trip type="noVar" depart="127" id="Sixth-Smithfield-WilliamPenn.372" from="Sixth-Smithfield-WilliamPenn" to="Sixth-Ross-RHS" />
<trip type="noVar" depart="127" id="Grant-Fourth-Forbes.446" from="Grant-Fourth-Forbes" to="Forbes-Ross-RHS" />
<trip type="noVar" depart="127" id="Ross-Seventh-Sixth.498" from="Ross-Seventh-Sixth" to="Grant-Forbes-Fourth" />
<trip type="noVar" depart="128" id="Ross-Seventh-Sixth.626" from="Ross-Seventh-Sixth" to="Sixth-Ross-RHS" />
<trip type="noVar" depart="129" id="Fifth-RHS-Ross.206" from="Fifth-RHS-Ross" to="Fifth-WilliamPenn-Smithfield" />
<trip type="noVar" depart="130" id="Fifth-RHS-Ross.308" from="Fifth-RHS-Ross" to="Sixth-WilliamPenn-Smithfield" />
<trip type="noVar" depart="131" id="WilliamPenn-Seventh-Sixth.119" from="WilliamPenn-Seventh-Sixth" to="Forbes-Ross-RHS" />
<trip type="noVar" depart="131" id="Ross-Fourth-Forbes.317" from="Ross-Fourth-Forbes" to="Grant-Sixth-Seventh" />
<trip type="noVar" depart="137" id="WilliamPenn-Seventh-Sixth.280" from="WilliamPenn-Seventh-Sixth" to="WilliamPenn-Forbes-Fourth" />
<trip type="noVar" depart="137" id="Grant-Fourth-Forbes.97" from="Grant-Fourth-Forbes" to="Grant-Sixth-Seventh" />
<trip type="noVar" depart="138" id="Forbes-RHS-Ross.147" from="Forbes-RHS-Ross" to="Grant-Forbes-Fourth" />
<trip type="noVar" depart="139" id="Forbes-Smithfield-WilliamPenn.4" from="Forbes-Smithfield-WilliamPenn" to="WilliamPenn-Forbes-Fourth" />
<trip type="noVar" depart="139" id="Ross-Seventh-Sixth.214" from="Ross-Seventh-Sixth" to="Forbes-Ross-RHS" />
<trip type="noVar" depart="140" id="WilliamPenn-Seventh-Sixth.210" from="WilliamPenn-Seventh-Sixth" to="WilliamPenn-Forbes-Fourth" />
<trip type="noVar" depart="141" id="Fifth-RHS-Ross.319" from="Fifth-RHS-Ross" to="Fifth-WilliamPenn-Smithfield" />
<trip type="noVar" depart="142" id="Forbes-RHS-Ross.93" from="Forbes-RHS-Ross" to="Grant-Forbes-Fourth" />
<trip type="noVar" depart="143" id="Grant-Seventh-Sixth.647" from="Grant-Seventh-Sixth" to="Grant-Forbes-Fourth" />
<trip type="noVar" depart="143" id="WilliamPenn-Seventh-Sixth.203" from="WilliamPenn-Seventh-Sixth" to="Sixth-WilliamPenn-Smithfield" />
<trip type="noVar" depart="143" id="WilliamPenn-Seventh-Sixth.337" from="WilliamPenn-Seventh-Sixth" to="WilliamPenn-Forbes-Fourth" />
<trip type="noVar" depart="144" id="Oliver-Smithfield-WilliamPenn.153" from="Oliver-Smithfield-WilliamPenn" to="Sixth-Ross-RHS" />
<trip type="noVar" depart="144" id="Grant-Fourth-Forbes.413" from="Grant-Fourth-Forbes" to="Grant-Sixth-Seventh" />
<trip type="noVar" depart="144" id="Forbes-RHS-Ross.392" from="Forbes-RHS-Ross" to="Ross-Forbes-Fourth" />
<trip type="noVar" depart="145" id="Grant-Fourth-Forbes.94" from="Grant-Fourth-Forbes" to="Grant-Sixth-Seventh" />
<trip type="noVar" depart="146" id="Grant-Fourth-Forbes.233" from="Grant-Fourth-Forbes" to="Forbes-Ross-RHS" />
<trip type="noVar" depart="146" id="Ross-Fourth-Forbes.53" from="Ross-Fourth-Forbes" to="Ross-Sixth-Seventh" />
<trip type="noVar" depart="147" id="Grant-Fourth-Forbes.58" from="Grant-Fourth-Forbes" to="Fifth-WilliamPenn-Smithfield" />
<trip type="noVar" depart="148" id="Grant-Fourth-Forbes.31" from="Grant-Fourth-Forbes" to="WilliamPenn-Forbes-Fourth" />
<trip type="noVar" depart="149" id="Fifth-Smithfield-WilliamPenn.50" from="Fifth-Smithfield-WilliamPenn" to="Grant-Sixth-Seventh" />
<trip type="noVar" depart="150" id="Grant-Fourth-Forbes.256" from="Grant-Fourth-Forbes" to="Grant-Sixth-Seventh" />
<trip type="noVar" depart="151" id="WilliamPenn-Seventh-Sixth.83" from="WilliamPenn-Seventh-Sixth" to="Sixth-WilliamPenn-Smithfield" />
<trip type="noVar" depart="153" id="Ross-Seventh-Sixth.434" from="Ross-Seventh-Sixth" to="Grant-Sixth-Seventh" />
<trip type="noVar" depart="153" id="Forbes-RHS-Ross.276" from="Forbes-RHS-Ross" to="Fifth-WilliamPenn-Smithfield" />
<trip type="noVar" depart="154" id="Sixth-RHS-Ross.1" from="Sixth-RHS-Ross" to="Grant-Sixth-Seventh" />
<trip type="noVar" depart="154" id="Ross-Fourth-Forbes.146" from="Ross-Fourth-Forbes" to="Grant-Forbes-Fourth" />
<trip type="noVar" depart="154" id="Ross-Fourth-Forbes.299" from="Ross-Fourth-Forbes" to="Forbes-Ross-RHS" />
<trip type="noVar" depart="155" id="Grant-Seventh-Sixth.121" from="Grant-Seventh-Sixth" to="Fifth-Ross-RHS" />
<trip type="noVar" depart="156" id="Grant-Seventh-Sixth.591" from="Grant-Seventh-Sixth" to="Grant-Forbes-Fourth" />
<trip type="noVar" depart="156" id="Sixth-Smithfield-WilliamPenn.360" from="Sixth-Smithfield-WilliamPenn" to="Fifth-WilliamPenn-Smithfield" />
<trip type="noVar" depart="156" id="Ross-Fourth-Forbes.471" from="Ross-Fourth-Forbes" to="Fifth-WilliamPenn-Smithfield" />
<trip type="noVar" depart="157" id="Grant-Seventh-Sixth.225" from="Grant-Seventh-Sixth" to="Grant-Forbes-Fourth" />
<trip type="noVar" depart="157" id="Ross-Fourth-Forbes.192" from="Ross-Fourth-Forbes" to="Forbes-Ross-RHS" />
<trip type="noVar" depart="158" id="Ross-Fourth-Forbes.213" from="Ross-Fourth-Forbes" to="Forbes-WilliamPenn-Smithfield" />
<trip type="noVar" depart="159" id="Sixth-Smithfield-WilliamPenn.400" from="Sixth-Smithfield-WilliamPenn" to="Grant-Sixth-Seventh" />
<trip type="noVar" depart="159" id="Grant-Fourth-Forbes.119" from="Grant-Fourth-Forbes" to="Ross-Sixth-Seventh" />
<trip type="noVar" depart="160" id="Ross-Fourth-Forbes.371" from="Ross-Fourth-Forbes" to="Grant-Forbes-Fourth" />
<trip type="noVar" depart="162" id="Grant-Seventh-Sixth.18" from="Grant-Seventh-Sixth" to="WilliamPenn-Forbes-Fourth" />
<trip type="noVar" depart="164" id="Ross-Seventh-Sixth.108" from="Ross-Seventh-Sixth" to="Ross-Forbes-Fourth" />
<trip type="noVar" depart="165" id="Forbes-RHS-Ross.522" from="Forbes-RHS-Ross" to="Ross-Forbes-Fourth" />