<?xml version="1.0" encoding="UTF-8"?>
<routes xmlns:xsi="http://www.w3.org/2001/XMLSchema-instance" xsi:noNamespaceSchemaLocation="http://sumo.dlr.de/xsd/routes_file.xsd">

<vType id="noVar" speedFactor="1.0" speedDev="0.0"/>
<route id="route_Sixth-Smithfield-WilliamPenn.551" edges="Sixth-Smithfield-WilliamPenn Sixth-WilliamPenn-Grant Grant-Sixth-Seventh" />
<vehicle type="noVar" depart="1" id="Sixth-Smithfield-WilliamPenn.551" route="route_Sixth-Smithfield-WilliamPenn.551" />
<route id="route_Grant-Fourth-Forbes.363" edges="Grant-Fourth-Forbes Grant-Fourth-Forbes-2 Grant-Forbes-Fifth Grant-Fifth-Oliver Grant-Oliver-Sixth Grant-Sixth-Seventh" />
<vehicle type="noVar" depart="1" id="Grant-Fourth-Forbes.363" route="route_Grant-Fourth-Forbes.363" />
<route id="route_Fifth-RHS-Ross.240" edges="Fifth-RHS-Ross Ross-Fifth-Forbes Forbes-Ross-Grant Forbes-Grant-WilliamPenn Forbes-WilliamPenn-Smithfield" />
<vehicle type="noVar" depart="2" id="Fifth-RHS-Ross.240" route="route_Fifth-RHS-Ross.240" />
<route id="route_Ross-Fourth-Forbes.786" edges="Ross-Fourth-Forbes Ross-Forbes-Fifth Ross-Fifth-Sixth Sixth-Ross-RHS" />
<vehicle type="noVar" depart="2" id="Ross-Fourth-Forbes.786" route="route_Ross-Fourth-Forbes.786" />
<route id="route_Grant-Seventh-Sixth.17" edges="Grant-Seventh-Sixth Sixth-Grant-Ross Ross-Sixth-Fifth Ross-Fifth-Forbes Forbes-Ross-Grant Grant-Forbes-Fourth" />
<vehicle type="noVar" depart="4" id="Grant-Seventh-Sixth.17" route="route_Grant-Seventh-Sixth.17" />
<route id="route_Grant-Seventh-Sixth.473" edges="Grant-Seventh-Sixth Sixth-Grant-Ross Ross-Sixth-Fifth Ross-Fifth-Forbes Forbes-Ross-Grant Grant-Forbes-Fourth" />
<vehicle type="noVar" depart="4" id="Grant-Seventh-Sixth.473" route="route_Grant-Seventh-Sixth.473" />
<route id="route_WilliamPenn-Seventh-Sixth.394" edges="WilliamPenn-Seventh-Sixth WilliamPenn-Sixth-Oliver Oliver-WilliamPenn-Smithfield" />
<vehicle type="noVar" depart="4" id="WilliamPenn-Seventh-Sixth.394" route="route_WilliamPenn-Seventh-Sixth.394" />
<route id="route_Grant-Fourth-Forbes.475" edges="Grant-Fourth-Forbes Grant-Fourth-Forbes-2 Grant-Forbes-Fifth Fifth-Grant-Ross Fifth-Grant-Ross-2 Ross-Fifth-Forbes Forbes-Ross-Grant Grant-Forbes-Fourth" />
<vehicle type="noVar" depart="4" id="Grant-Fourth-Forbes.475" route="route_Grant-Fourth-Forbes.475" />
<route id="route_Ross-Seventh-Sixth.138" edges="Ross-Seventh-Sixth Ross-Sixth-Fifth Ross-Fifth-Forbes Forbes-Ross-RHS" />
<vehicle type="noVar" depart="4" id="Ross-Seventh-Sixth.138" route="route_Ross-Seventh-Sixth.138" />
<route id="route_Grant-Seventh-Sixth.245" edges="Grant-Seventh-Sixth Sixth-Grant-WilliamPenn Sixth-WilliamPenn-Smithfield" />
<vehicle type="noVar" depart="5" id="Grant-Seventh-Sixth.245" route="route_Grant-Seventh-Sixth.245" />
<route id="route_Grant-Fourth-Forbes.774" edges="Grant-Fourth-Forbes Grant-Fourth-Forbes-2 Forbes-Grant-WilliamPenn WilliamPenn-Forbes-Fourth" />
<vehicle type="noVar" depart="5" id="Grant-Fourth-Forbes.774" route="route_Grant-Fourth-Forbes.774" />
<route id="route_Fifth-RHS-Ross.412" edges="Fifth-RHS-Ross Ross-Fifth-Forbes Forbes-Ross-Grant Grant-Forbes-Fourth" />
<vehicle type="noVar" depart="6" id="Fifth-RHS-Ross.412" route="route_Fifth-RHS-Ross.412" />
<route id="route_Grant-Seventh-Sixth.200" edges="Grant-Seventh-Sixth Sixth-Grant-Ross Ross-Sixth-Seventh" />
<vehicle type="noVar" depart="7" id="Grant-Seventh-Sixth.200" route="route_Grant-Seventh-Sixth.200" />
<route id="route_Sixth-RHS-Ross.27" edges="Sixth-RHS-Ross Sixth-Ross-Grant Sixth-Grant-WilliamPenn Sixth-WilliamPenn-Smithfield" />
<vehicle type="noVar" depart="7" id="Sixth-RHS-Ross.27" route="route_Sixth-RHS-Ross.27" />
<route id="route_Grant-Seventh-Sixth.553" edges="Grant-Seventh-Sixth Sixth-Grant-Ross Ross-Sixth-Fifth Ross-Fifth-Forbes Forbes-Ross-Grant Grant-Forbes-Fourth" />
<vehicle type="noVar" depart="8" id="Grant-Seventh-Sixth.553" route="route_Grant-Seventh-Sixth.553" />
<route id="route_Grant-Seventh-Sixth.950" edges="Grant-Seventh-Sixth Sixth-Grant-WilliamPenn WilliamPenn-Sixth-Oliver WilliamPenn-Oliver-Fifth WilliamPenn-Fifth-Forbes Forbes-WilliamPenn-Smithfield" />
<vehicle type="noVar" depart="8" id="Grant-Seventh-Sixth.950" route="route_Grant-Seventh-Sixth.950" />
<route id="route_Grant-Fourth-Forbes.330" edges="Grant-Fourth-Forbes Grant-Fourth-Forbes-2 Forbes-Grant-Ross Ross-Forbes-Fifth Ross-Fifth-Sixth Sixth-Ross-RHS" />
<vehicle type="noVar" depart="8" id="Grant-Fourth-Forbes.330" route="route_Grant-Fourth-Forbes.330" />
<route id="route_Ross-Seventh-Sixth.549" edges="Ross-Seventh-Sixth Sixth-Ross-RHS" />
<vehicle type="noVar" depart="8" id="Ross-Seventh-Sixth.549" route="route_Ross-Seventh-Sixth.549" />
<route id="route_Ross-Seventh-Sixth.900" edges="Ross-Seventh-Sixth Sixth-Ross-Grant Grant-Sixth-Seventh" />
<vehicle type="noVar" depart="8" id="Ross-Seventh-Sixth.900" route="route_Ross-Seventh-Sixth.900" />
<route id="route_Forbes-RHS-Ross.497" edges="Forbes-RHS-Ross Ross-Forbes-Fourth" />
<vehicle type="noVar" depart="8" id="Forbes-RHS-Ross.497" route="route_Forbes-RHS-Ross.497" />
<route id="route_Sixth-Smithfield-WilliamPenn.206" edges="Sixth-Smithfield-WilliamPenn Sixth-WilliamPenn-Grant Sixth-Grant-Ross Ross-Sixth-Fifth Ross-Fifth-Forbes Ross-Forbes-Fourth" />
<vehicle type="noVar" depart="9" id="Sixth-Smithfield-WilliamPenn.206" route="route_Sixth-Smithfield-WilliamPenn.206" />
<route id="route_Sixth-RHS-Ross.702" edges="Sixth-RHS-Ross Sixth-Ross-Grant Sixth-Grant-WilliamPenn Sixth-WilliamPenn-Smithfield" />
<vehicle type="noVar" depart="10" id="Sixth-RHS-Ross.702" route="route_Sixth-RHS-Ross.702" />
<route id="route_Forbes-RHS-Ross.500" edges="Forbes-RHS-Ross Forbes-Ross-Grant Grant-Forbes-Fourth" />
<vehicle type="noVar" depart="10" id="Forbes-RHS-Ross.500" route="route_Forbes-RHS-Ross.500" />
<route id="route_Grant-Fourth-Forbes.859" edges="Grant-Fourth-Forbes Grant-Fourth-Forbes-2 Forbes-Grant-WilliamPenn WilliamPenn-Forbes-Fourth" />
<vehicle type="noVar" depart="11" id="Grant-Fourth-Forbes.859" route="route_Grant-Fourth-Forbes.859" />
<route id="route_Forbes-RHS-Ross.596" edges="Forbes-RHS-Ross Forbes-Ross-Grant Forbes-Grant-WilliamPenn Forbes-WilliamPenn-Smithfield" />
<vehicle type="noVar" depart="11" id="Forbes-RHS-Ross.596" route="route_Forbes-RHS-Ross.596" />
<route id="route_Ross-Fourth-Forbes.147" edges="Ross-Fourth-Forbes Ross-Forbes-Fifth Ross-Fifth-Sixth Ross-Sixth-Seventh" />
<vehicle type="noVar" depart="11" id="Ross-Fourth-Forbes.147" route="route_Ross-Fourth-Forbes.147" />
<route id="route_Grant-Seventh-Sixth.818" edges="Grant-Seventh-Sixth Sixth-Grant-Ross Ross-Sixth-Fifth Ross-Fifth-Forbes Forbes-Ross-Grant Grant-Forbes-Fourth" />
<vehicle type="noVar" depart="12" id="Grant-Seventh-Sixth.818" route="route_Grant-Seventh-Sixth.818" />
<route id="route_Forbes-RHS-Ross.143" edges="Forbes-RHS-Ross Forbes-Ross-Grant Grant-Forbes-Fourth" />
<vehicle type="noVar" depart="12" id="Forbes-RHS-Ross.143" route="route_Forbes-RHS-Ross.143" />
<route id="route_Grant-Seventh-Sixth.385" edges="Grant-Seventh-Sixth Sixth-Grant-Ross Ross-Sixth-Fifth Fifth-Ross-RHS" />
<vehicle type="noVar" depart="13" id="Grant-Seventh-Sixth.385" route="route_Grant-Seventh-Sixth.385" />
<route id="route_Grant-Seventh-Sixth.774" edges="Grant-Seventh-Sixth Sixth-Grant-WilliamPenn WilliamPenn-Sixth-Oliver WilliamPenn-Oliver-Fifth WilliamPenn-Fifth-Forbes WilliamPenn-Forbes-Fourth" />
<vehicle type="noVar" depart="13" id="Grant-Seventh-Sixth.774" route="route_Grant-Seventh-Sixth.774" />
<route id="route_Grant-Seventh-Sixth.989" edges="Grant-Seventh-Sixth Sixth-Grant-Ross Ross-Sixth-Fifth Ross-Fifth-Forbes Forbes-Ross-Grant Grant-Forbes-Fourth" />
<vehicle type="noVar" depart="13" id="Grant-Seventh-Sixth.989" route="route_Grant-Seventh-Sixth.989" />
<route id="route_WilliamPenn-Seventh-Sixth.392" edges="WilliamPenn-Seventh-Sixth Sixth-WilliamPenn-Grant Sixth-Grant-Ross Ross-Sixth-Seventh" />
<vehicle type="noVar" depart="13" id="WilliamPenn-Seventh-Sixth.392" route="route_WilliamPenn-Seventh-Sixth.392" />
<route id="route_Sixth-RHS-Ross.288" edges="Sixth-RHS-Ross Ross-Sixth-Fifth Ross-Fifth-Forbes Forbes-Ross-RHS" />
<vehicle type="noVar" depart="14" id="Sixth-RHS-Ross.288" route="route_Sixth-RHS-Ross.288" />
<route id="route_Forbes-RHS-Ross.640" edges="Forbes-RHS-Ross Forbes-Ross-Grant Forbes-Grant-WilliamPenn Forbes-WilliamPenn-Smithfield" />
<vehicle type="noVar" depart="14" id="Forbes-RHS-Ross.640" route="route_Forbes-RHS-Ross.640" />
<route id="route_Ross-Fourth-Forbes.28" edges="Ross-Fourth-Forbes Ross-Forbes-Fifth Ross-Fifth-Sixth Ross-Sixth-Seventh" />
<vehicle type="noVar" depart="14" id="Ross-Fourth-Forbes.28" route="route_Ross-Fourth-Forbes.28" />
<route id="route_Sixth-Smithfield-WilliamPenn.109" edges="Sixth-Smithfield-WilliamPenn Sixth-WilliamPenn-Grant Sixth-Grant-Ross Sixth-Ross-RHS" />
<vehicle type="noVar" depart="15" id="Sixth-Smithfield-WilliamPenn.109" route="route_Sixth-Smithfield-WilliamPenn.109" />
<route id="route_Oliver-Smithfield-WilliamPenn.509" edges="Oliver-Smithfield-WilliamPenn Oliver-WilliamPenn-Grant Grant-Oliver-Sixth Grant-Sixth-Seventh" />
<vehicle type="noVar" depart="15" id="Oliver-Smithfield-WilliamPenn.509" route="route_Oliver-Smithfield-WilliamPenn.509" />
<route id="route_Fifth-RHS-Ross.188" edges="Fifth-RHS-Ross Ross-Fifth-Forbes Forbes-Ross-Grant Grant-Forbes-Fourth" />
<vehicle type="noVar" depart="15" id="Fifth-RHS-Ross.188" route="route_Fifth-RHS-Ross.188" />
<route id="route_Ross-Seventh-Sixth.35" edges="Ross-Seventh-Sixth Sixth-Ross-RHS" />
<vehicle type="noVar" depart="16" id="Ross-Seventh-Sixth.35" route="route_Ross-Seventh-Sixth.35" />
<route id="route_Sixth-RHS-Ross.252" edges="Sixth-RHS-Ross Ross-Sixth-Fifth Ross-Fifth-Forbes Forbes-Ross-Grant Grant-Forbes-Fourth" />
<vehicle type="noVar" depart="16" id="Sixth-RHS-Ross.252" route="route_Sixth-RHS-Ross.252" />
<route id="route_Grant-Fourth-Forbes.22" edges="Grant-Fourth-Forbes Grant-Fourth-Forbes-2 Forbes-Grant-Ross Ross-Forbes-Fifth Ross-Fifth-Sixth Sixth-Ross-RHS" />
<vehicle type="noVar" depart="17" id="Grant-Fourth-Forbes.22" route="route_Grant-Fourth-Forbes.22" />
<route id="route_Grant-Fourth-Forbes.190" edges="Grant-Fourth-Forbes Grant-Fourth-Forbes-2 Grant-Forbes-Fifth Grant-Fifth-Oliver Grant-Oliver-Sixth Grant-Sixth-Seventh" />
<vehicle type="noVar" depart="17" id="Grant-Fourth-Forbes.190" route="route_Grant-Fourth-Forbes.190" />
<route id="route_Forbes-RHS-Ross.112" edges="Forbes-RHS-Ross Forbes-Ross-Grant Forbes-Grant-WilliamPenn Forbes-WilliamPenn-Smithfield" />
<vehicle type="noVar" depart="17" id="Forbes-RHS-Ross.112" route="route_Forbes-RHS-Ross.112" />
<route id="route_WilliamPenn-Seventh-Sixth.179" edges="WilliamPenn-Seventh-Sixth Sixth-WilliamPenn-Grant Sixth-Grant-Ross Sixth-Ross-RHS" />
<vehicle type="noVar" depart="18" id="WilliamPenn-Seventh-Sixth.179" route="route_WilliamPenn-Seventh-Sixth.179" />
<route id="route_Ross-Seventh-Sixth.837" edges="Ross-Seventh-Sixth Ross-Sixth-Fifth Ross-Fifth-Forbes Ross-Forbes-Fourth" />
<vehicle type="noVar" depart="18" id="Ross-Seventh-Sixth.837" route="route_Ross-Seventh-Sixth.837" />
<route id="route_Ross-Seventh-Sixth.491" edges="Ross-Seventh-Sixth Sixth-Ross-Grant Sixth-Grant-WilliamPenn Sixth-WilliamPenn-Smithfield" />
<vehicle type="noVar" depart="19" id="Ross-Seventh-Sixth.491" route="route_Ross-Seventh-Sixth.491" />
<route id="route_Ross-Fourth-Forbes.426" edges="Ross-Fourth-Forbes Ross-Forbes-Fifth Ross-Fifth-Sixth Ross-Sixth-Seventh" />
<vehicle type="noVar" depart="19" id="Ross-Fourth-Forbes.426" route="route_Ross-Fourth-Forbes.426" />
<route id="route_Ross-Fourth-Forbes.529" edges="Ross-Fourth-Forbes Ross-Forbes-Fifth Ross-Fifth-Sixth Sixth-Ross-Grant Sixth-Grant-WilliamPenn Sixth-WilliamPenn-Smithfield" />
<vehicle type="noVar" depart="19" id="Ross-Fourth-Forbes.529" route="route_Ross-Fourth-Forbes.529" />
<route id="route_Grant-Seventh-Sixth.13" edges="Grant-Seventh-Sixth Sixth-Grant-Ross Ross-Sixth-Seventh" />
<vehicle type="noVar" depart="20" id="Grant-Seventh-Sixth.13" route="route_Grant-Seventh-Sixth.13" />
<route id="route_WilliamPenn-Seventh-Sixth.426" edges="WilliamPenn-Seventh-Sixth Sixth-WilliamPenn-Grant Grant-Sixth-Seventh" />
<vehicle type="noVar" depart="21" id="WilliamPenn-Seventh-Sixth.426" route="route_WilliamPenn-Seventh-Sixth.426" />
<route id="route_Sixth-Smithfield-WilliamPenn.85" edges="Sixth-Smithfield-WilliamPenn WilliamPenn-Sixth-Oliver WilliamPenn-Oliver-Fifth Fifth-WilliamPenn-Smithfield" />
<vehicle type="noVar" depart="21" id="Sixth-Smithfield-WilliamPenn.85" route="route_Sixth-Smithfield-WilliamPenn.85" />
<route id="route_Sixth-RHS-Ross.357" edges="Sixth-RHS-Ross Sixth-Ross-Grant Sixth-Grant-WilliamPenn Sixth-WilliamPenn-Smithfield" />
<vehicle type="noVar" depart="21" id="Sixth-RHS-Ross.357" route="route_Sixth-RHS-Ross.357" />
<route id="route_Oliver-Smithfield-WilliamPenn.261" edges="Oliver-Smithfield-WilliamPenn WilliamPenn-Oliver-Fifth WilliamPenn-Fifth-Forbes Forbes-WilliamPenn-Smithfield" />
<vehicle type="noVar" depart="22" id="Oliver-Smithfield-WilliamPenn.261" route="route_Oliver-Smithfield-WilliamPenn.261" />
<route id="route_Fifth-RHS-Ross.369" edges="Fifth-RHS-Ross Ross-Fifth-Forbes Forbes-Ross-Grant Grant-Forbes-Fourth" />
<vehicle type="noVar" depart="22" id="Fifth-RHS-Ross.369" route="route_Fifth-RHS-Ross.369" />
<route id="route_Grant-Seventh-Sixth.434" edges="Grant-Seventh-Sixth Sixth-Grant-Ross Ross-Sixth-Fifth Ross-Fifth-Forbes Forbes-Ross-Grant Grant-Forbes-Fourth" />
<vehicle type="noVar" depart="23" id="Grant-Seventh-Sixth.434" route="route_Grant-Seventh-Sixth.434" />
<route id="route_Grant-Fourth-Forbes.536" edges="Grant-Fourth-Forbes Grant-Fourth-Forbes-2 Grant-Forbes-Fifth Grant-Fifth-Oliver Grant-Oliver-Sixth Grant-Sixth-Seventh" />
<vehicle type="noVar" depart="23" id="Grant-Fourth-Forbes.536" route="route_Grant-Fourth-Forbes.536" />
<route id="route_Ross-Fourth-Forbes.581" edges="Ross-Fourth-Forbes Forbes-Ross-RHS" />
<vehicle type="noVar" depart="23" id="Ross-Fourth-Forbes.581" route="route_Ross-Fourth-Forbes.581" />
<route id="route_Grant-Seventh-Sixth.962" edges="Grant-Seventh-Sixth Sixth-Grant-WilliamPenn WilliamPenn-Sixth-Oliver WilliamPenn-Oliver-Fifth WilliamPenn-Fifth-Forbes WilliamPenn-Forbes-Fourth" />
<vehicle type="noVar" depart="24" id="Grant-Seventh-Sixth.962" route="route_Grant-Seventh-Sixth.962" />
<route id="route_Grant-Fourth-Forbes.79" edges="Grant-Fourth-Forbes Grant-Fourth-Forbes-2 Grant-Forbes-Fifth Grant-Fifth-Oliver Grant-Oliver-Sixth Grant-Sixth-Seventh" />
<vehicle type="noVar" depart="24" id="Grant-Fourth-Forbes.79" route="route_Grant-Fourth-Forbes.79" />
<route id="route_Ross-Seventh-Sixth.113" edges="Ross-Seventh-Sixth Sixth-Ross-RHS" />
<vehicle type="noVar" depart="24" id="Ross-Seventh-Sixth.113" route="route_Ross-Seventh-Sixth.113" />
<route id="route_Sixth-RHS-Ross.562" edges="Sixth-RHS-Ross Ross-Sixth-Seventh" />
<vehicle type="noVar" depart="24" id="Sixth-RHS-Ross.562" route="route_Sixth-RHS-Ross.562" />
<route id="route_Forbes-RHS-Ross.790" edges="Forbes-RHS-Ross Forbes-Ross-Grant Grant-Forbes-Fourth" />
<vehicle type="noVar" depart="24" id="Forbes-RHS-Ross.790" route="route_Forbes-RHS-Ross.790" />
<route id="route_Sixth-Smithfield-WilliamPenn.204" edges="Sixth-Smithfield-WilliamPenn Sixth-WilliamPenn-Grant Sixth-Grant-Ross Ross-Sixth-Seventh" />
<vehicle type="noVar" depart="25" id="Sixth-Smithfield-WilliamPenn.204" route="route_Sixth-Smithfield-WilliamPenn.204" />
<route id="route_Oliver-Smithfield-WilliamPenn.165" edges="Oliver-Smithfield-WilliamPenn WilliamPenn-Oliver-Fifth Fifth-WilliamPenn-Grant Grant-Fifth-Forbes Grant-Forbes-Fourth" />
<vehicle type="noVar" depart="25" id="Oliver-Smithfield-WilliamPenn.165" route="route_Oliver-Smithfield-WilliamPenn.165" />
<route id="route_Sixth-Smithfield-WilliamPenn.287" edges="Sixth-Smithfield-WilliamPenn Sixth-WilliamPenn-Grant Grant-Sixth-Seventh" />
<vehicle type="noVar" depart="26" id="Sixth-Smithfield-WilliamPenn.287" route="route_Sixth-Smithfield-WilliamPenn.287" />
<route id="route_Sixth-RHS-Ross.205" edges="Sixth-RHS-Ross Ross-Sixth-Fifth Ross-Fifth-Forbes Forbes-Ross-Grant Grant-Forbes-Fourth" />
<vehicle type="noVar" depart="26" id="Sixth-RHS-Ross.205" route="route_Sixth-RHS-Ross.205" />
<route id="route_Sixth-Smithfield-WilliamPenn.118" edges="Sixth-Smithfield-WilliamPenn Sixth-WilliamPenn-Grant Sixth-Grant-Ross Ross-Sixth-Seventh" />
<vehicle type="noVar" depart="27" id="Sixth-Smithfield-WilliamPenn.118" route="route_Sixth-Smithfield-WilliamPenn.118" />
<route id="route_Fifth-RHS-Ross.480" edges="Fifth-RHS-Ross Ross-Fifth-Sixth Sixth-Ross-Grant Grant-Sixth-Seventh" />
<vehicle type="noVar" depart="27" id="Fifth-RHS-Ross.480" route="route_Fifth-RHS-Ross.480" />
<route id="route_Forbes-RHS-Ross.243" edges="Forbes-RHS-Ross Forbes-Ross-Grant Forbes-Grant-WilliamPenn WilliamPenn-Forbes-Fourth" />
<vehicle type="noVar" depart="27" id="Forbes-RHS-Ross.243" route="route_Forbes-RHS-Ross.243" />
<route id="route_Sixth-Smithfield-WilliamPenn.625" edges="Sixth-Smithfield-WilliamPenn Sixth-WilliamPenn-Grant Sixth-Grant-Ross Ross-Sixth-Fifth Fifth-Ross-RHS" />
<vehicle type="noVar" depart="28" id="Sixth-Smithfield-WilliamPenn.625" route="route_Sixth-Smithfield-WilliamPenn.625" />
<route id="route_Forbes-RHS-Ross.191" edges="Forbes-RHS-Ross Forbes-Ross-Grant Forbes-Grant-WilliamPenn WilliamPenn-Forbes-Fourth" />
<vehicle type="noVar" depart="28" id="Forbes-RHS-Ross.191" route="route_Forbes-RHS-Ross.191" />
<route id="route_Ross-Fourth-Forbes.298" edges="Ross-Fourth-Forbes Forbes-Ross-RHS" />
<vehicle type="noVar" depart="28" id="Ross-Fourth-Forbes.298" route="route_Ross-Fourth-Forbes.298" />
<route id="route_Grant-Fourth-Forbes.382" edges="Grant-Fourth-Forbes Grant-Fourth-Forbes-2 Grant-Forbes-Fifth Grant-Fifth-Oliver Grant-Oliver-Sixth Grant-Sixth-Seventh" />
<vehicle type="noVar" depart="29" id="Grant-Fourth-Forbes.382" route="route_Grant-Fourth-Forbes.382" />
<route id="route_Grant-Fourth-Forbes.724" edges="Grant-Fourth-Forbes Grant-Fourth-Forbes-2 Grant-Forbes-Fifth Grant-Fifth-Oliver Grant-Oliver-Sixth Grant-Sixth-Seventh" />
<vehicle type="noVar" depart="29" id="Grant-Fourth-Forbes.724" route="route_Grant-Fourth-Forbes.724" />
<route id="route_Grant-Seventh-Sixth.959" edges="Grant-Seventh-Sixth Sixth-Grant-Ross Ross-Sixth-Fifth Ross-Fifth-Forbes Forbes-Ross-Grant Grant-Forbes-Fourth" />
<vehicle type="noVar" depart="30" id="Grant-Seventh-Sixth.959" route="route_Grant-Seventh-Sixth.959" />
<route id="route_Sixth-Smithfield-WilliamPenn.229" edges="Sixth-Smithfield-WilliamPenn Sixth-WilliamPenn-Grant Sixth-Grant-Ross Sixth-Ross-RHS" />
<vehicle type="noVar" depart="30" id="Sixth-Smithfield-WilliamPenn.229" route="route_Sixth-Smithfield-WilliamPenn.229" />
<route id="route_Oliver-Smithfield-WilliamPenn.98" edges="Oliver-Smithfield-WilliamPenn WilliamPenn-Oliver-Fifth WilliamPenn-Fifth-Forbes WilliamPenn-Forbes-Fourth" />
<vehicle type="noVar" depart="30" id="Oliver-Smithfield-WilliamPenn.98" route="route_Oliver-Smithfield-WilliamPenn.98" />
<route id="route_Oliver-Smithfield-WilliamPenn.89" edges="Oliver-Smithfield-WilliamPenn WilliamPenn-Oliver-Fifth WilliamPenn-Fifth-Forbes WilliamPenn-Forbes-Fourth" />
<vehicle type="noVar" depart="31" id="Oliver-Smithfield-WilliamPenn.89" route="route_Oliver-Smithfield-WilliamPenn.89" />
<route id="route_Fifth-Smithfield-WilliamPenn.118" edges="Fifth-Smithfield-WilliamPenn Fifth-WilliamPenn-Grant Fifth-Grant-Ross Fifth-Grant-Ross-2 Fifth-Ross-RHS" />
<vehicle type="noVar" depart="31" id="Fifth-Smithfield-WilliamPenn.118" route="route_Fifth-Smithfield-WilliamPenn.118" />
<route id="route_Forbes-RHS-Ross.431" edges="Forbes-RHS-Ross Forbes-Ross-Grant Forbes-Grant-WilliamPenn Forbes-WilliamPenn-Smithfield" />
<vehicle type="noVar" depart="31" id="Forbes-RHS-Ross.431" route="route_Forbes-RHS-Ross.431" />
<route id="route_Ross-Fourth-Forbes.712" edges="Ross-Fourth-Forbes Ross-Forbes-Fifth Fifth-Ross-RHS" />
<vehicle type="noVar" depart="31" id="Ross-Fourth-Forbes.712" route="route_Ross-Fourth-Forbes.712" />
<route id="route_Ross-Seventh-Sixth.283" edges="Ross-Seventh-Sixth Ross-Sixth-Fifth Fifth-Ross-Grant Fifth-Ross-Grant-2 Fifth-Grant-WilliamPenn Fifth-WilliamPenn-Smithfield" />
<vehicle type="noVar" depart="32" id="Ross-Seventh-Sixth.283" route="route_Ross-Seventh-Sixth.283" />
<route id="route_Fifth-RHS-Ross.400" edges="Fifth-RHS-Ross Ross-Fifth-Sixth Sixth-Ross-Grant Grant-Sixth-Seventh" />
<vehicle type="noVar" depart="32" id="Fifth-RHS-Ross.400" route="route_Fifth-RHS-Ross.400" />
<route id="route_Grant-Fourth-Forbes.258" edges="Grant-Fourth-Forbes Grant-Fourth-Forbes-2 Forbes-Grant-WilliamPenn WilliamPenn-Forbes-Fourth" />
<vehicle type="noVar" depart="33" id="Grant-Fourth-Forbes.258" route="route_Grant-Fourth-Forbes.258" />
<route id="route_Sixth-Smithfield-WilliamPenn.559" edges="Sixth-Smithfield-WilliamPenn Sixth-WilliamPenn-Grant Sixth-Grant-Ross Ross-Sixth-Seventh" />
<vehicle type="noVar" depart="34" id="Sixth-Smithfield-WilliamPenn.559" route="route_Sixth-Smithfield-WilliamPenn.559" />
<route id="route_Oliver-Smithfield-WilliamPenn.417" edges="Oliver-Smithfield-WilliamPenn Oliver-WilliamPenn-Grant Grant-Oliver-Sixth Grant-Sixth-Seventh" />
<vehicle type="noVar" depart="34" id="Oliver-Smithfield-WilliamPenn.417" route="route_Oliver-Smithfield-WilliamPenn.417" />
<route id="route_Ross-Seventh-Sixth.767" edges="Ross-Seventh-Sixth Ross-Sixth-Fifth Ross-Fifth-Forbes Ross-Forbes-Fourth" />
<vehicle type="noVar" depart="34" id="Ross-Seventh-Sixth.767" route="route_Ross-Seventh-Sixth.767" />
<route id="route_Grant-Seventh-Sixth.440" edges="Grant-Seventh-Sixth Sixth-Grant-Ross Ross-Sixth-Fifth Fifth-Ross-RHS" />
<vehicle type="noVar" depart="35" id="Grant-Seventh-Sixth.440" route="route_Grant-Seventh-Sixth.440" />
<route id="route_Forbes-RHS-Ross.698" edges="Forbes-RHS-Ross Forbes-Ross-Grant Grant-Forbes-Fourth" />
<vehicle type="noVar" depart="35" id="Forbes-RHS-Ross.698" route="route_Forbes-RHS-Ross.698" />
<route id="route_Grant-Seventh-Sixth.488" edges="Grant-Seventh-Sixth Sixth-Grant-Ross Ross-Sixth-Fifth Fifth-Ross-RHS" />
<vehicle type="noVar" depart="37" id="Grant-Seventh-Sixth.488" route="route_Grant-Seventh-Sixth.488" />
<route id="route_Grant-Seventh-Sixth.668" edges="Grant-Seventh-Sixth Sixth-Grant-Ross Ross-Sixth-Fifth Ross-Fifth-Forbes Forbes-Ross-Grant Grant-Forbes-Fourth" />
<vehicle type="noVar" depart="37" id="Grant-Seventh-Sixth.668" route="route_Grant-Seventh-Sixth.668" />
<route id="route_Fifth-RHS-Ross.580" edges="Fifth-RHS-Ross Ross-Fifth-Sixth Sixth-Ross-Grant Grant-Sixth-Seventh" />
<vehicle type="noVar" depart="37" id="Fifth-RHS-Ross.580" route="route_Fifth-RHS-Ross.580" />
<route id="route_Forbes-RHS-Ross.380" edges="Forbes-RHS-Ross Forbes-Ross-Grant Forbes-Grant-WilliamPenn Forbes-WilliamPenn-Smithfield" />
<vehicle type="noVar" depart="37" id="Forbes-RHS-Ross.380" route="route_Forbes-RHS-Ross.380" />
<route id="route_Ross-Fourth-Forbes.640" edges="Ross-Fourth-Forbes Ross-Forbes-Fifth Ross-Fifth-Sixth Sixth-Ross-RHS" />
<vehicle type="noVar" depart="37" id="Ross-Fourth-Forbes.640" route="route_Ross-Fourth-Forbes.640" />
<route id="route_Grant-Seventh-Sixth.377" edges="Grant-Seventh-Sixth Sixth-Grant-Ross Ross-Sixth-Fifth Ross-Fifth-Forbes Forbes-Ross-Grant Grant-Forbes-Fourth" />
<vehicle type="noVar" depart="38" id="Grant-Seventh-Sixth.377" route="route_Grant-Seventh-Sixth.377" />
<route id="route_Oliver-Smithfield-WilliamPenn.177" edges="Oliver-Smithfield-WilliamPenn WilliamPenn-Oliver-Fifth WilliamPenn-Fifth-Forbes WilliamPenn-Forbes-Fourth" />
<vehicle type="noVar" depart="38" id="Oliver-Smithfield-WilliamPenn.177" route="route_Oliver-Smithfield-WilliamPenn.177" />
<route id="route_Grant-Fourth-Forbes.555" edges="Grant-Fourth-Forbes Grant-Fourth-Forbes-2 Grant-Forbes-Fifth Grant-Fifth-Oliver Grant-Oliver-Sixth Grant-Sixth-Seventh" />
<vehicle type="noVar" depart="38" id="Grant-Fourth-Forbes.555" route="route_Grant-Fourth-Forbes.555" />
<route id="route_Forbes-RHS-Ross.876" edges="Forbes-RHS-Ross Forbes-Ross-Grant Grant-Forbes-Fourth" />
<vehicle type="noVar" depart="38" id="Forbes-RHS-Ross.876" route="route_Forbes-RHS-Ross.876" />
<route id="route_Fifth-Smithfield-WilliamPenn.24" edges="Fifth-Smithfield-WilliamPenn Fifth-WilliamPenn-Grant Fifth-Grant-Ross Fifth-Grant-Ross-2 Fifth-Ross-RHS" />
<vehicle type="noVar" depart="39" id="Fifth-Smithfield-WilliamPenn.24" route="route_Fifth-Smithfield-WilliamPenn.24" />
<route id="route_Ross-Seventh-Sixth.289" edges="Ross-Seventh-Sixth Sixth-Ross-RHS" />
<vehicle type="noVar" depart="39" id="Ross-Seventh-Sixth.289" route="route_Ross-Seventh-Sixth.289" />
<route id="route_Sixth-Smithfield-WilliamPenn.442" edges="Sixth-Smithfield-WilliamPenn Sixth-WilliamPenn-Grant Sixth-Grant-Ross Sixth-Ross-RHS" />
<vehicle type="noVar" depart="40" id="Sixth-Smithfield-WilliamPenn.442" route="route_Sixth-Smithfield-WilliamPenn.442" />
<route id="route_WilliamPenn-Seventh-Sixth.235" edges="WilliamPenn-Seventh-Sixth WilliamPenn-Sixth-Oliver Oliver-WilliamPenn-Smithfield" />
<vehicle type="noVar" depart="41" id="WilliamPenn-Seventh-Sixth.235" route="route_WilliamPenn-Seventh-Sixth.235" />
<route id="route_Sixth-Smithfield-WilliamPenn.40" edges="Sixth-Smithfield-WilliamPenn Sixth-WilliamPenn-Grant Sixth-Grant-Ross Ross-Sixth-Seventh" />
<vehicle type="noVar" depart="42" id="Sixth-Smithfield-WilliamPenn.40" route="route_Sixth-Smithfield-WilliamPenn.40" />
<route id="route_Fifth-RHS-Ross.486" edges="Fifth-RHS-Ross Ross-Fifth-Sixth Sixth-Ross-RHS" />
<vehicle type="noVar" depart="42" id="Fifth-RHS-Ross.486" route="route_Fifth-RHS-Ross.486" />
<route id="route_Ross-Fourth-Forbes.25" edges="Ross-Fourth-Forbes Ross-Forbes-Fifth Ross-Fifth-Sixth Ross-Sixth-Seventh" />
<vehicle type="noVar" depart="42" id="Ross-Fourth-Forbes.25" route="route_Ross-Fourth-Forbes.25" />
<route id="route_Grant-Fourth-Forbes.655" edges="Grant-Fourth-Forbes Grant-Fourth-Forbes-2 Forbes-Grant-Ross Ross-Forbes-Fifth Fifth-Ross-RHS" />
<vehicle type="noVar" depart="44" id="Grant-Fourth-Forbes.655" route="route_Grant-Fourth-Forbes.655" />
<route id="route_Ross-Seventh-Sixth.187" edges="Ross-Seventh-Sixth Ross-Sixth-Fifth Ross-Fifth-Forbes Ross-Forbes-Fourth" />
<vehicle type="noVar" depart="44" id="Ross-Seventh-Sixth.187" route="route_Ross-Seventh-Sixth.187" />
<route id="route_Oliver-Smithfield-WilliamPenn.321" edges="Oliver-Smithfield-WilliamPenn Oliver-WilliamPenn-Grant Grant-Oliver-Sixth Grant-Sixth-Seventh" />
<vehicle type="noVar" depart="45" id="Oliver-Smithfield-WilliamPenn.321" route="route_Oliver-Smithfield-WilliamPenn.321" />
<route id="route_Oliver-Smithfield-WilliamPenn.360" edges="Oliver-Smithfield-WilliamPenn Oliver-WilliamPenn-Grant Grant-Oliver-Sixth Sixth-Grant-Ross Sixth-Ross-RHS" />
<vehicle type="noVar" depart="46" id="Oliver-Smithfield-WilliamPenn.360" route="route_Oliver-Smithfield-WilliamPenn.360" />
<route id="route_Oliver-Smithfield-WilliamPenn.473" edges="Oliver-Smithfield-WilliamPenn Oliver-WilliamPenn-Grant Grant-Oliver-Sixth Grant-Sixth-Seventh" />
<vehicle type="noVar" depart="47" id="Oliver-Smithfield-WilliamPenn.473" route="route_Oliver-Smithfield-WilliamPenn.473" />
<route id="route_Ross-Seventh-Sixth.106" edges="Ross-Seventh-Sixth Sixth-Ross-Grant Grant-Sixth-Seventh" />
<vehicle type="noVar" depart="48" id="Ross-Seventh-Sixth.106" route="route_Ross-Seventh-Sixth.106" />
<route id="route_Fifth-RHS-Ross.408" edges="Fifth-RHS-Ross Ross-Fifth-Sixth Sixth-Ross-Grant Sixth-Grant-WilliamPenn Sixth-WilliamPenn-Smithfield" />
<vehicle type="noVar" depart="48" id="Fifth-RHS-Ross.408" route="route_Fifth-RHS-Ross.408" />
<route id="route_Grant-Seventh-Sixth.227" edges="Grant-Seventh-Sixth Grant-Sixth-Oliver Grant-Oliver-Fifth Grant-Fifth-Forbes Grant-Forbes-Fourth" />
<vehicle type="noVar" depart="49" id="Grant-Seventh-Sixth.227" route="route_Grant-Seventh-Sixth.227" />
<route id="route_Grant-Fourth-Forbes.2" edges="Grant-Fourth-Forbes Grant-Fourth-Forbes-2 Forbes-Grant-Ross Ross-Forbes-Fifth Ross-Fifth-Sixth Ross-Sixth-Seventh" />
<vehicle type="noVar" depart="49" id="Grant-Fourth-Forbes.2" route="route_Grant-Fourth-Forbes.2" />
<route id="route_Grant-Fourth-Forbes.557" edges="Grant-Fourth-Forbes Grant-Fourth-Forbes-2 Forbes-Grant-Ross Ross-Forbes-Fifth Ross-Fifth-Sixth Ross-Sixth-Seventh" />
<vehicle type="noVar" depart="49" id="Grant-Fourth-Forbes.557" route="route_Grant-Fourth-Forbes.557" />
<route id="route_Ross-Seventh-Sixth.159" edges="Ross-Seventh-Sixth Sixth-Ross-RHS" />
<vehicle type="noVar" depart="49" id="Ross-Seventh-Sixth.159" route="route_Ross-Seventh-Sixth.159" />
<route id="route_Ross-Seventh-Sixth.723" edges="Ross-Seventh-Sixth Sixth-Ross-RHS" />
<vehicle type="noVar" depart="49" id="Ross-Seventh-Sixth.723" route="route_Ross-Seventh-Sixth.723" />
<route id="route_Oliver-Smithfield-WilliamPenn.45" edges="Oliver-Smithfield-WilliamPenn Oliver-WilliamPenn-Grant Grant-Oliver-Sixth Grant-Sixth-Seventh" />
<vehicle type="noVar" depart="50" id="Oliver-Smithfield-WilliamPenn.45" route="route_Oliver-Smithfield-WilliamPenn.45" />
<route id="route_Oliver-Smithfield-WilliamPenn.222" edges="Oliver-Smithfield-WilliamPenn WilliamPenn-Oliver-Fifth Fifth-WilliamPenn-Grant Grant-Fifth-Forbes Grant-Forbes-Fourth" />
<vehicle type="noVar" depart="50" id="Oliver-Smithfield-WilliamPenn.222" route="route_Oliver-Smithfield-WilliamPenn.222" />
<route id="route_Oliver-Smithfield-WilliamPenn.544" edges="Oliver-Smithfield-WilliamPenn Oliver-WilliamPenn-Grant Grant-Oliver-Sixth Grant-Sixth-Seventh" />
<vehicle type="noVar" depart="50" id="Oliver-Smithfield-WilliamPenn.544" route="route_Oliver-Smithfield-WilliamPenn.544" />
<route id="route_Forbes-RHS-Ross.194" edges="Forbes-RHS-Ross Forbes-Ross-Grant Grant-Forbes-Fourth" />
<vehicle type="noVar" depart="50" id="Forbes-RHS-Ross.194" route="route_Forbes-RHS-Ross.194" />