<?xml version="1.0" encoding="UTF-8"?>
<routes xmlns:xsi="http://www.w3.org/2001/XMLSchema-instance" xsi:noNamespaceSchemaLocation="http://sumo.dlr.de/xsd/routes_file.xsd">

<vType id="noVar" speedFactor="1.0" speedDev="0.0"/>
<trip type="noVar" depart="1" id="Fifth-Bigelow-Grant.62" from="Fifth-Bigelow-Grant" to="Fifth-WilliamPenn-Smithfield" />
<trip type="noVar" depart="1" id="Grant-Fourth-Forbes.529" from="Grant-Fourth-Forbes" to="Grant-Oliver-Sixth" />
<trip type="noVar" depart="2" id="Grant-Sixth-Oliver.396" from="Grant-Sixth-Oliver" to="Forbes-Grant-Bigelow" />
<trip type="noVar" depart="2" id="Grant-Fourth-Forbes.533" from="Grant-Fourth-Forbes" to="Grant-Oliver-Sixth" />
<trip type="noVar" depart="3" id="Grant-Sixth-Oliver.336" from="Grant-Sixth-Oliver" to="WilliamPenn-Forbes-Fourth" />
<trip type="noVar" depart="4" id="Sixth-Grant-WilliamPenn.169" from="Sixth-Grant-WilliamPenn" to="Sixth-WilliamPenn-Smithfield" />
<trip type="noVar" depart="4" id="Grant-Sixth-Oliver.85" from="Grant-Sixth-Oliver" to="Fifth-Grant-Bigelow" />
<trip type="noVar" depart="4" id="Oliver-Smithfield-WilliamPenn.54" from="Oliver-Smithfield-WilliamPenn" to="Grant-Oliver-Sixth" />
<trip type="noVar" depart="7" id="Sixth-Smithfield-WilliamPenn.219" from="Sixth-Smithfield-WilliamPenn" to="Sixth-WilliamPenn-Grant" />
<trip type="noVar" depart="9" id="Sixth-Smithfield-WilliamPenn.15" from="Sixth-Smithfield-WilliamPenn" to="Fifth-WilliamPenn-Smithfield" />
<trip type="noVar" depart="11" id="Sixth-Smithfield-WilliamPenn.159" from="Sixth-Smithfield-WilliamPenn" to="Sixth-WilliamPenn-Grant" />
<trip type="noVar" depart="12" id="Grant-Sixth-Oliver.119" from="Grant-Sixth-Oliver" to="Grant-Forbes-Fourth" />
<trip type="noVar" depart="12" id="Grant-Fourth-Forbes.689" from="Grant-Fourth-Forbes" to="WilliamPenn-Forbes-Fourth" />
<trip type="noVar" depart="14" id="Sixth-Grant-WilliamPenn.314" from="Sixth-Grant-WilliamPenn" to="Sixth-WilliamPenn-Smithfield" />
<trip type="noVar" depart="14" id="Sixth-Smithfield-WilliamPenn.202" from="Sixth-Smithfield-WilliamPenn" to="Sixth-WilliamPenn-Grant" />
<trip type="noVar" depart="14" id="Fifth-Bigelow-Grant.32" from="Fifth-Bigelow-Grant" to="Grant-Forbes-Fourth" />
<trip type="noVar" depart="14" id="Forbes-Bigelow-Grant.221" from="Forbes-Bigelow-Grant" to="Grant-Forbes-Fourth" />
<trip type="noVar" depart="15" id="Sixth-Grant-WilliamPenn.139" from="Sixth-Grant-WilliamPenn" to="Sixth-WilliamPenn-Smithfield" />
<trip type="noVar" depart="17" id="Sixth-Smithfield-WilliamPenn.268" from="Sixth-Smithfield-WilliamPenn" to="Oliver-WilliamPenn-Smithfield" />
<trip type="noVar" depart="19" id="Forbes-Bigelow-Grant.102" from="Forbes-Bigelow-Grant" to="WilliamPenn-Forbes-Fourth" />
<trip type="noVar" depart="20" id="Grant-Fourth-Forbes.563" from="Grant-Fourth-Forbes" to="Forbes-WilliamPenn-Smithfield" />
<trip type="noVar" depart="22" id="Sixth-Smithfield-WilliamPenn.139" from="Sixth-Smithfield-WilliamPenn" to="Sixth-WilliamPenn-Grant" />
<trip type="noVar" depart="22" id="Fifth-Bigelow-Grant.173" from="Fifth-Bigelow-Grant" to="Fifth-WilliamPenn-Smithfield" />
<trip type="noVar" depart="23" id="Oliver-Smithfield-WilliamPenn.102" from="Oliver-Smithfield-WilliamPenn" to="Grant-Oliver-Sixth" />
<trip type="noVar" depart="24" id="Sixth-Grant-WilliamPenn.6" from="Sixth-Grant-WilliamPenn" to="Sixth-WilliamPenn-Smithfield" />
<trip type="noVar" depart="24" id="Grant-Fourth-Forbes.559" from="Grant-Fourth-Forbes" to="Forbes-WilliamPenn-Smithfield" />
<trip type="noVar" depart="26" id="Sixth-Grant-WilliamPenn.297" from="Sixth-Grant-WilliamPenn" to="Sixth-WilliamPenn-Smithfield" />
<trip type="noVar" depart="27" id="Forbes-Bigelow-Grant.8" from="Forbes-Bigelow-Grant" to="Grant-Forbes-Fourth" />
<trip type="noVar" depart="30" id="Sixth-Grant-WilliamPenn.140" from="Sixth-Grant-WilliamPenn" to="Sixth-WilliamPenn-Smithfield" />
<trip type="noVar" depart="30" id="Fifth-Bigelow-Grant.5" from="Fifth-Bigelow-Grant" to="Fifth-WilliamPenn-Smithfield" />
<trip type="noVar" depart="31" id="WilliamPenn-Seventh-Sixth.200" from="WilliamPenn-Seventh-Sixth" to="Sixth-WilliamPenn-Smithfield" />
<trip type="noVar" depart="32" id="Sixth-Smithfield-WilliamPenn.195" from="Sixth-Smithfield-WilliamPenn" to="WilliamPenn-Forbes-Fourth" />
<trip type="noVar" depart="33" id="Forbes-Bigelow-Grant.267" from="Forbes-Bigelow-Grant" to="Grant-Forbes-Fourth" />
<trip type="noVar" depart="34" id="WilliamPenn-Seventh-Sixth.87" from="WilliamPenn-Seventh-Sixth" to="Sixth-WilliamPenn-Smithfield" />
<trip type="noVar" depart="34" id="Fifth-Smithfield-WilliamPenn.9" from="Fifth-Smithfield-WilliamPenn" to="Fifth-Grant-Bigelow" />
<trip type="noVar" depart="34" id="Grant-Fourth-Forbes.6" from="Grant-Fourth-Forbes" to="Grant-Oliver-Sixth" />
<trip type="noVar" depart="35" id="Forbes-Bigelow-Grant.74" from="Forbes-Bigelow-Grant" to="WilliamPenn-Forbes-Fourth" />
<trip type="noVar" depart="36" id="Fifth-Bigelow-Grant.362" from="Fifth-Bigelow-Grant" to="Grant-Oliver-Sixth" />
<trip type="noVar" depart="37" id="Grant-Fourth-Forbes.633" from="Grant-Fourth-Forbes" to="Grant-Oliver-Sixth" />
<trip type="noVar" depart="38" id="WilliamPenn-Seventh-Sixth.115" from="WilliamPenn-Seventh-Sixth" to="Sixth-WilliamPenn-Smithfield" />
<trip type="noVar" depart="38" id="Fifth-Bigelow-Grant.342" from="Fifth-Bigelow-Grant" to="Grant-Forbes-Fourth" />
<trip type="noVar" depart="40" id="Grant-Fourth-Forbes.648" from="Grant-Fourth-Forbes" to="WilliamPenn-Forbes-Fourth" />
<trip type="noVar" depart="42" id="Oliver-Smithfield-WilliamPenn.108" from="Oliver-Smithfield-WilliamPenn" to="Fifth-Grant-Bigelow" />
<trip type="noVar" depart="42" id="Grant-Fourth-Forbes.667" from="Grant-Fourth-Forbes" to="Forbes-WilliamPenn-Smithfield" />
<trip type="noVar" depart="44" id="WilliamPenn-Seventh-Sixth.86" from="WilliamPenn-Seventh-Sixth" to="Sixth-WilliamPenn-Smithfield" />
<trip type="noVar" depart="46" id="Sixth-Smithfield-WilliamPenn.111" from="Sixth-Smithfield-WilliamPenn" to="WilliamPenn-Forbes-Fourth" />
<trip type="noVar" depart="50" id="Oliver-Smithfield-WilliamPenn.21" from="Oliver-Smithfield-WilliamPenn" to="Forbes-WilliamPenn-Smithfield" />
<trip type="noVar" depart="50" id="Oliver-Smithfield-WilliamPenn.101" from="Oliver-Smithfield-WilliamPenn" to="Grant-Oliver-Sixth" />
<trip type="noVar" depart="53" id="Grant-Fourth-Forbes.547" from="Grant-Fourth-Forbes" to="Grant-Oliver-Sixth" />
<trip type="noVar" depart="55" id="Fifth-Smithfield-WilliamPenn.82" from="Fifth-Smithfield-WilliamPenn" to="Fifth-Grant-Bigelow" />
<trip type="noVar" depart="59" id="Fifth-Bigelow-Grant.84" from="Fifth-Bigelow-Grant" to="Fifth-WilliamPenn-Smithfield" />
<trip type="noVar" depart="60" id="Grant-Fourth-Forbes.188" from="Grant-Fourth-Forbes" to="Fifth-WilliamPenn-Smithfield" />
<trip type="noVar" depart="61" id="Grant-Sixth-Oliver.331" from="Grant-Sixth-Oliver" to="Fifth-Grant-Bigelow" />
<trip type="noVar" depart="64" id="Grant-Sixth-Oliver.111" from="Grant-Sixth-Oliver" to="Grant-Forbes-Fourth" />
<trip type="noVar" depart="65" id="Grant-Fourth-Forbes.329" from="Grant-Fourth-Forbes" to="Grant-Oliver-Sixth" />
<trip type="noVar" depart="66" id="Grant-Fourth-Forbes.560" from="Grant-Fourth-Forbes" to="Grant-Oliver-Sixth" />
<trip type="noVar" depart="67" id="Grant-Fourth-Forbes.373" from="Grant-Fourth-Forbes" to="Grant-Oliver-Sixth" />
<trip type="noVar" depart="68" id="Fifth-Bigelow-Grant.241" from="Fifth-Bigelow-Grant" to="Fifth-WilliamPenn-Smithfield" />
<trip type="noVar" depart="70" id="Sixth-Smithfield-WilliamPenn.282" from="Sixth-Smithfield-WilliamPenn" to="Sixth-WilliamPenn-Grant" />
<trip type="noVar" depart="70" id="Forbes-Bigelow-Grant.326" from="Forbes-Bigelow-Grant" to="Grant-Forbes-Fourth" />
<trip type="noVar" depart="72" id="Forbes-Bigelow-Grant.4" from="Forbes-Bigelow-Grant" to="Grant-Forbes-Fourth" />
<trip type="noVar" depart="73" id="Grant-Fourth-Forbes.599" from="Grant-Fourth-Forbes" to="Forbes-WilliamPenn-Smithfield" />
<trip type="noVar" depart="74" id="Grant-Fourth-Forbes.398" from="Grant-Fourth-Forbes" to="Grant-Oliver-Sixth" />
<trip type="noVar" depart="75" id="Grant-Sixth-Oliver.306" from="Grant-Sixth-Oliver" to="Grant-Forbes-Fourth" />
<trip type="noVar" depart="75" id="Fifth-Bigelow-Grant.2" from="Fifth-Bigelow-Grant" to="Fifth-WilliamPenn-Smithfield" />
<trip type="noVar" depart="76" id="Forbes-Bigelow-Grant.188" from="Forbes-Bigelow-Grant" to="Grant-Forbes-Fourth" />
<trip type="noVar" depart="78" id="Fifth-Bigelow-Grant.246" from="Fifth-Bigelow-Grant" to="Fifth-WilliamPenn-Smithfield" />
<trip type="noVar" depart="78" id="Grant-Fourth-Forbes.227" from="Grant-Fourth-Forbes" to="Forbes-WilliamPenn-Smithfield" />
<trip type="noVar" depart="79" id="Forbes-Bigelow-Grant.317" from="Forbes-Bigelow-Grant" to="WilliamPenn-Forbes-Fourth" />
<trip type="noVar" depart="85" id="Fifth-Smithfield-WilliamPenn.76" from="Fifth-Smithfield-WilliamPenn" to="Fifth-Grant-Bigelow" />
<trip type="noVar" depart="86" id="Forbes-Bigelow-Grant.294" from="Forbes-Bigelow-Grant" to="Forbes-WilliamPenn-Smithfield" />
<trip type="noVar" depart="86" id="Grant-Fourth-Forbes.324" from="Grant-Fourth-Forbes" to="Grant-Oliver-Sixth" />
<trip type="noVar" depart="87" id="Fifth-Bigelow-Grant.221" from="Fifth-Bigelow-Grant" to="Fifth-WilliamPenn-Smithfield" />
<trip type="noVar" depart="88" id="Grant-Sixth-Oliver.302" from="Grant-Sixth-Oliver" to="Grant-Forbes-Fourth" />
<trip type="noVar" depart="89" id="Sixth-Grant-WilliamPenn.265" from="Sixth-Grant-WilliamPenn" to="Sixth-WilliamPenn-Smithfield" />
<trip type="noVar" depart="90" id="Sixth-Grant-WilliamPenn.32" from="Sixth-Grant-WilliamPenn" to="Sixth-WilliamPenn-Smithfield" />
<trip type="noVar" depart="90" id="Fifth-Bigelow-Grant.387" from="Fifth-Bigelow-Grant" to="Fifth-WilliamPenn-Smithfield" />
<trip type="noVar" depart="90" id="Fifth-Smithfield-WilliamPenn.100" from="Fifth-Smithfield-WilliamPenn" to="Fifth-Grant-Bigelow" />
<trip type="noVar" depart="92" id="Oliver-Smithfield-WilliamPenn.8" from="Oliver-Smithfield-WilliamPenn" to="Grant-Oliver-Sixth" />
<trip type="noVar" depart="94" id="Fifth-Bigelow-Grant.63" from="Fifth-Bigelow-Grant" to="Fifth-WilliamPenn-Smithfield" />
<trip type="noVar" depart="95" id="Oliver-Smithfield-WilliamPenn.114" from="Oliver-Smithfield-WilliamPenn" to="Grant-Oliver-Sixth" />
<trip type="noVar" depart="97" id="WilliamPenn-Seventh-Sixth.114" from="WilliamPenn-Seventh-Sixth" to="WilliamPenn-Forbes-Fourth" />
<trip type="noVar" depart="97" id="Grant-Sixth-Oliver.122" from="Grant-Sixth-Oliver" to="Grant-Forbes-Fourth" />
<trip type="noVar" depart="97" id="Fifth-Bigelow-Grant.186" from="Fifth-Bigelow-Grant" to="Fifth-WilliamPenn-Smithfield" />
<trip type="noVar" depart="97" id="Fifth-Bigelow-Grant.314" from="Fifth-Bigelow-Grant" to="Fifth-WilliamPenn-Smithfield" />
<trip type="noVar" depart="99" id="Grant-Sixth-Oliver.79" from="Grant-Sixth-Oliver" to="Forbes-WilliamPenn-Smithfield" />
<trip type="noVar" depart="99" id="Grant-Fourth-Forbes.277" from="Grant-Fourth-Forbes" to="Grant-Oliver-Sixth" />
<trip type="noVar" depart="101" id="Grant-Fourth-Forbes.53" from="Grant-Fourth-Forbes" to="Forbes-Grant-Bigelow" />
<trip type="noVar" depart="101" id="Grant-Fourth-Forbes.662" from="Grant-Fourth-Forbes" to="Grant-Oliver-Sixth" />
<trip type="noVar" depart="102" id="Oliver-Smithfield-WilliamPenn.18" from="Oliver-Smithfield-WilliamPenn" to="Grant-Oliver-Sixth" />
<trip type="noVar" depart="103" id="Grant-Fourth-Forbes.590" from="Grant-Fourth-Forbes" to="WilliamPenn-Forbes-Fourth" />
<trip type="noVar" depart="108" id="Forbes-Bigelow-Grant.44" from="Forbes-Bigelow-Grant" to="Forbes-WilliamPenn-Smithfield" />
<trip type="noVar" depart="109" id="Sixth-Grant-WilliamPenn.328" from="Sixth-Grant-WilliamPenn" to="Sixth-WilliamPenn-Smithfield" />
<trip type="noVar" depart="111" id="Grant-Sixth-Oliver.452" from="Grant-Sixth-Oliver" to="Grant-Forbes-Fourth" />
<trip type="noVar" depart="112" id="Forbes-Bigelow-Grant.220" from="Forbes-Bigelow-Grant" to="WilliamPenn-Forbes-Fourth" />
<trip type="noVar" depart="112" id="Grant-Fourth-Forbes.650" from="Grant-Fourth-Forbes" to="Grant-Oliver-Sixth" />
<trip type="noVar" depart="114" id="Grant-Fourth-Forbes.44" from="Grant-Fourth-Forbes" to="Grant-Oliver-Sixth" />
<trip type="noVar" depart="116" id="Fifth-Bigelow-Grant.12" from="Fifth-Bigelow-Grant" to="Fifth-WilliamPenn-Smithfield" />
<trip type="noVar" depart="116" id="Fifth-Bigelow-Grant.69" from="Fifth-Bigelow-Grant" to="Grant-Forbes-Fourth" />
<trip type="noVar" depart="117" id="Grant-Fourth-Forbes.123" from="Grant-Fourth-Forbes" to="Grant-Oliver-Sixth" />
<trip type="noVar" depart="118" id="Forbes-Bigelow-Grant.254" from="Forbes-Bigelow-Grant" to="Grant-Forbes-Fourth" />
<trip type="noVar" depart="119" id="Grant-Sixth-Oliver.445" from="Grant-Sixth-Oliver" to="Grant-Forbes-Fourth" />
<trip type="noVar" depart="119" id="Grant-Fourth-Forbes.256" from="Grant-Fourth-Forbes" to="Grant-Oliver-Sixth" />
<trip type="noVar" depart="120" id="Sixth-Grant-WilliamPenn.112" from="Sixth-Grant-WilliamPenn" to="Sixth-WilliamPenn-Smithfield" />
<trip type="noVar" depart="120" id="Grant-Sixth-Oliver.20" from="Grant-Sixth-Oliver" to="Grant-Forbes-Fourth" />
<trip type="noVar" depart="123" id="Grant-Sixth-Oliver.103" from="Grant-Sixth-Oliver" to="Fifth-WilliamPenn-Smithfield" />
<trip type="noVar" depart="123" id="Grant-Fourth-Forbes.116" from="Grant-Fourth-Forbes" to="Grant-Oliver-Sixth" />
<trip type="noVar" depart="124" id="Grant-Sixth-Oliver.451" from="Grant-Sixth-Oliver" to="Grant-Forbes-Fourth" />
<trip type="noVar" depart="125" id="Fifth-Smithfield-WilliamPenn.52" from="Fifth-Smithfield-WilliamPenn" to="Forbes-WilliamPenn-Smithfield" />
<trip type="noVar" depart="127" id="Forbes-Bigelow-Grant.205" from="Forbes-Bigelow-Grant" to="Fifth-Grant-Bigelow" />
<trip type="noVar" depart="128" id="Sixth-Grant-WilliamPenn.62" from="Sixth-Grant-WilliamPenn" to="Sixth-WilliamPenn-Smithfield" />
<trip type="noVar" depart="128" id="Oliver-Smithfield-WilliamPenn.158" from="Oliver-Smithfield-WilliamPenn" to="WilliamPenn-Forbes-Fourth" />
<trip type="noVar" depart="131" id="Grant-Sixth-Oliver.288" from="Grant-Sixth-Oliver" to="Grant-Forbes-Fourth" />
<trip type="noVar" depart="131" id="Fifth-Bigelow-Grant.50" from="Fifth-Bigelow-Grant" to="Fifth-WilliamPenn-Smithfield" />
<trip type="noVar" depart="131" id="Grant-Fourth-Forbes.263" from="Grant-Fourth-Forbes" to="Grant-Oliver-Sixth" />
<trip type="noVar" depart="131" id="Grant-Fourth-Forbes.284" from="Grant-Fourth-Forbes" to="Forbes-Grant-Bigelow" />
<trip type="noVar" depart="133" id="Sixth-Smithfield-WilliamPenn.37" from="Sixth-Smithfield-WilliamPenn" to="Sixth-WilliamPenn-Grant" />
<trip type="noVar" depart="133" id="Fifth-Smithfield-WilliamPenn.113" from="Fifth-Smithfield-WilliamPenn" to="Fifth-Grant-Bigelow" />
<trip type="noVar" depart="133" id="Grant-Fourth-Forbes.276" from="Grant-Fourth-Forbes" to="Grant-Oliver-Sixth" />
<trip type="noVar" depart="136" id="Fifth-Bigelow-Grant.208" from="Fifth-Bigelow-Grant" to="Fifth-WilliamPenn-Smithfield" />
<trip type="noVar" depart="139" id="Forbes-Bigelow-Grant.126" from="Forbes-Bigelow-Grant" to="WilliamPenn-Forbes-Fourth" />
<trip type="noVar" depart="140" id="Sixth-Grant-WilliamPenn.308" from="Sixth-Grant-WilliamPenn" to="Sixth-WilliamPenn-Smithfield" />
<trip type="noVar" depart="140" id="Grant-Sixth-Oliver.353" from="Grant-Sixth-Oliver" to="Fifth-WilliamPenn-Smithfield" />
<trip type="noVar" depart="141" id="Sixth-Grant-WilliamPenn.289" from="Sixth-Grant-WilliamPenn" to="Sixth-WilliamPenn-Smithfield" />
<trip type="noVar" depart="141" id="Grant-Fourth-Forbes.187" from="Grant-Fourth-Forbes" to="WilliamPenn-Forbes-Fourth" />
<trip type="noVar" depart="142" id="Sixth-Grant-WilliamPenn.110" from="Sixth-Grant-WilliamPenn" to="Sixth-WilliamPenn-Smithfield" />
<trip type="noVar" depart="142" id="Sixth-Grant-WilliamPenn.156" from="Sixth-Grant-WilliamPenn" to="Sixth-WilliamPenn-Smithfield" />
<trip type="noVar" depart="143" id="Sixth-Grant-WilliamPenn.146" from="Sixth-Grant-WilliamPenn" to="Sixth-WilliamPenn-Smithfield" />
<trip type="noVar" depart="144" id="Grant-Sixth-Oliver.156" from="Grant-Sixth-Oliver" to="Fifth-Grant-Bigelow" />
<trip type="noVar" depart="145" id="Forbes-Bigelow-Grant.261" from="Forbes-Bigelow-Grant" to="Grant-Forbes-Fourth" />
<trip type="noVar" depart="146" id="Fifth-Bigelow-Grant.20" from="Fifth-Bigelow-Grant" to="Fifth-WilliamPenn-Smithfield" />
<trip type="noVar" depart="146" id="Forbes-Bigelow-Grant.302" from="Forbes-Bigelow-Grant" to="WilliamPenn-Forbes-Fourth" />
<trip type="noVar" depart="149" id="Grant-Sixth-Oliver.330" from="Grant-Sixth-Oliver" to="Forbes-Grant-Bigelow" />
<trip type="noVar" depart="149" id="Grant-Fourth-Forbes.571" from="Grant-Fourth-Forbes" to="Forbes-Grant-Bigelow" />
<trip type="noVar" depart="151" id="Fifth-Bigelow-Grant.272" from="Fifth-Bigelow-Grant" to="WilliamPenn-Forbes-Fourth" />
<trip type="noVar" depart="152" id="Sixth-Grant-WilliamPenn.152" from="Sixth-Grant-WilliamPenn" to="Sixth-WilliamPenn-Smithfield" />
<trip type="noVar" depart="152" id="Fifth-Smithfield-WilliamPenn.66" from="Fifth-Smithfield-WilliamPenn" to="WilliamPenn-Forbes-Fourth" />
<trip type="noVar" depart="153" id="Sixth-Grant-WilliamPenn.69" from="Sixth-Grant-WilliamPenn" to="Sixth-WilliamPenn-Smithfield" />
<trip type="noVar" depart="153" id="Forbes-Bigelow-Grant.258" from="Forbes-Bigelow-Grant" to="Grant-Forbes-Fourth" />
<trip type="noVar" depart="154" id="Fifth-Bigelow-Grant.124" from="Fifth-Bigelow-Grant" to="Fifth-WilliamPenn-Smithfield" />
<trip type="noVar" depart="154" id="Fifth-Bigelow-Grant.323" from="Fifth-Bigelow-Grant" to="WilliamPenn-Forbes-Fourth" />
<trip type="noVar" depart="156" id="Grant-Sixth-Oliver.346" from="Grant-Sixth-Oliver" to="WilliamPenn-Forbes-Fourth" />
<trip type="noVar" depart="159" id="Grant-Sixth-Oliver.230" from="Grant-Sixth-Oliver" to="Grant-Forbes-Fourth" />
<trip type="noVar" depart="164" id="Sixth-Grant-WilliamPenn.193" from="Sixth-Grant-WilliamPenn" to="Sixth-WilliamPenn-Smithfield" />
<trip type="noVar" depart="166" id="Grant-Sixth-Oliver.98" from="Grant-Sixth-Oliver" to="Grant-Forbes-Fourth" />
<trip type="noVar" depart="168" id="WilliamPenn-Seventh-Sixth.8" from="WilliamPenn-Seventh-Sixth" to="Grant-Oliver-Sixth" />
<trip type="noVar" depart="169" id="WilliamPenn-Seventh-Sixth.25" from="WilliamPenn-Seventh-Sixth" to="Sixth-WilliamPenn-Grant" />
<trip type="noVar" depart="169" id="Sixth-Smithfield-WilliamPenn.288" from="Sixth-Smithfield-WilliamPenn" to="Sixth-WilliamPenn-Grant" />
<trip type="noVar" depart="169" id="Fifth-Bigelow-Grant.22" from="Fifth-Bigelow-Grant" to="Fifth-WilliamPenn-Smithfield" />
<trip type="noVar" depart="173" id="Sixth-Grant-WilliamPenn.238" from="Sixth-Grant-WilliamPenn" to="Grant-Oliver-Sixth" />
<trip type="noVar" depart="173" id="WilliamPenn-Seventh-Sixth.85" from="WilliamPenn-Seventh-Sixth" to="Sixth-WilliamPenn-Grant" />
<trip type="noVar" depart="174" id="Sixth-Smithfield-WilliamPenn.79" from="Sixth-Smithfield-WilliamPenn" to="WilliamPenn-Forbes-Fourth" />
<trip type="noVar" depart="174" id="Fifth-Bigelow-Grant.150" from="Fifth-Bigelow-Grant" to="Fifth-WilliamPenn-Smithfield" />
<trip type="noVar" depart="174" id="Forbes-Bigelow-Grant.57" from="Forbes-Bigelow-Grant" to="Grant-Oliver-Sixth" />
<trip type="noVar" depart="175" id="Sixth-Smithfield-WilliamPenn.100" from="Sixth-Smithfield-WilliamPenn" to="Sixth-WilliamPenn-Grant" />
<trip type="noVar" depart="176" id="Fifth-Bigelow-Grant.366" from="Fifth-Bigelow-Grant" to="Grant-Oliver-Sixth" />
<trip type="noVar" depart="176" id="Forbes-Bigelow-Grant.242" from="Forbes-Bigelow-Grant" to="Grant-Forbes-Fourth" />
<trip type="noVar" depart="177" id="Grant-Sixth-Oliver.405" from="Grant-Sixth-Oliver" to="Grant-Forbes-Fourth" />
<trip type="noVar" depart="177" id="Fifth-Bigelow-Grant.334" from="Fifth-Bigelow-Grant" to="Fifth-WilliamPenn-Smithfield" />
<trip type="noVar" depart="182" id="Oliver-Smithfield-WilliamPenn.49" from="Oliver-Smithfield-WilliamPenn" to="Grant-Oliver-Sixth" />
<trip type="noVar" depart="183" id="Sixth-Grant-WilliamPenn.187" from="Sixth-Grant-WilliamPenn" to="Sixth-WilliamPenn-Smithfield" />
<trip type="noVar" depart="183" id="Grant-Sixth-Oliver.42" from="Grant-Sixth-Oliver" to="Grant-Forbes-Fourth" />
<trip type="noVar" depart="185" id="Grant-Sixth-Oliver.121" from="Grant-Sixth-Oliver" to="Grant-Forbes-Fourth" />
<trip type="noVar" depart="186" id="Sixth-Smithfield-WilliamPenn.28" from="Sixth-Smithfield-WilliamPenn" to="WilliamPenn-Forbes-Fourth" />
<trip type="noVar" depart="187" id="Sixth-Smithfield-WilliamPenn.63" from="Sixth-Smithfield-WilliamPenn" to="WilliamPenn-Forbes-Fourth" />
<trip type="noVar" depart="188" id="Grant-Fourth-Forbes.232" from="Grant-Fourth-Forbes" to="Grant-Oliver-Sixth" />
<trip type="noVar" depart="191" id="Grant-Sixth-Oliver.203" from="Grant-Sixth-Oliver" to="Forbes-WilliamPenn-Smithfield" />
<trip type="noVar" depart="192" id="Sixth-Grant-WilliamPenn.4" from="Sixth-Grant-WilliamPenn" to="Sixth-WilliamPenn-Smithfield" />
<trip type="noVar" depart="192" id="Fifth-Bigelow-Grant.91" from="Fifth-Bigelow-Grant" to="Fifth-WilliamPenn-Smithfield" />
<trip type="noVar" depart="194" id="WilliamPenn-Seventh-Sixth.188" from="WilliamPenn-Seventh-Sixth" to="Oliver-WilliamPenn-Smithfield" />
<trip type="noVar" depart="194" id="Grant-Fourth-Forbes.302" from="Grant-Fourth-Forbes" to="Fifth-WilliamPenn-Smithfield" />
<trip type="noVar" depart="196" id="Grant-Fourth-Forbes.434" from="Grant-Fourth-Forbes" to="Fifth-Grant-Bigelow" />
<trip type="noVar" depart="197" id="Grant-Fourth-Forbes.295" from="Grant-Fourth-Forbes" to="Grant-Oliver-Sixth" />
<trip type="noVar" depart="199" id="Grant-Sixth-Oliver.41" from="Grant-Sixth-Oliver" to="Grant-Forbes-Fourth" />
<trip type="noVar" depart="200" id="Grant-Sixth-Oliver.22" from="Grant-Sixth-Oliver" to="Forbes-Grant-Bigelow" />
<trip type="noVar" depart="202" id="Grant-Sixth-Oliver.379" from="Grant-Sixth-Oliver" to="Forbes-WilliamPenn-Smithfield" />
<trip type="noVar" depart="204" id="Fifth-Bigelow-Grant.229" from="Fifth-Bigelow-Grant" to="Fifth-WilliamPenn-Smithfield" />
<trip type="noVar" depart="206" id="Grant-Fourth-Forbes.150" from="Grant-Fourth-Forbes" to="Grant-Oliver-Sixth" />
<trip type="noVar" depart="207" id="Grant-Fourth-Forbes.96" from="Grant-Fourth-Forbes" to="Forbes-Grant-Bigelow" />
<trip type="noVar" depart="207" id="Grant-Fourth-Forbes.466" from="Grant-Fourth-Forbes" to="Grant-Oliver-Sixth" />
<trip type="noVar" depart="208" id="Sixth-Grant-WilliamPenn.291" from="Sixth-Grant-WilliamPenn" to="Sixth-WilliamPenn-Smithfield" />
<trip type="noVar" depart="208" id="WilliamPenn-Seventh-Sixth.137" from="WilliamPenn-Seventh-Sixth" to="Fifth-WilliamPenn-Smithfield" />
<trip type="noVar" depart="212" id="Grant-Fourth-Forbes.241" from="Grant-Fourth-Forbes" to="Grant-Oliver-Sixth" />
<trip type="noVar" depart="213" id="Grant-Sixth-Oliver.125" from="Grant-Sixth-Oliver" to="Grant-Forbes-Fourth" />
<trip type="noVar" depart="215" id="Sixth-Smithfield-WilliamPenn.152" from="Sixth-Smithfield-WilliamPenn" to="WilliamPenn-Forbes-Fourth" />
<trip type="noVar" depart="216" id="Sixth-Grant-WilliamPenn.197" from="Sixth-Grant-WilliamPenn" to="Sixth-WilliamPenn-Smithfield" />
<trip type="noVar" depart="216" id="Forbes-Bigelow-Grant.26" from="Forbes-Bigelow-Grant" to="Grant-Forbes-Fourth" />
<trip type="noVar" depart="217" id="Grant-Fourth-Forbes.535" from="Grant-Fourth-Forbes" to="Forbes-Grant-Bigelow" />
<trip type="noVar" depart="218" id="Fifth-Bigelow-Grant.228" from="Fifth-Bigelow-Grant" to="Fifth-WilliamPenn-Smithfield" />
<trip type="noVar" depart="220" id="Fifth-Bigelow-Grant.68" from="Fifth-Bigelow-Grant" to="WilliamPenn-Forbes-Fourth" />
<trip type="noVar" depart="222" id="Grant-Fourth-Forbes.514" from="Grant-Fourth-Forbes" to="Fifth-Grant-Bigelow" />
<trip type="noVar" depart="224" id="Forbes-Bigelow-Grant.228" from="Forbes-Bigelow-Grant" to="Forbes-WilliamPenn-Smithfield" />
<trip type="noVar" depart="225" id="Fifth-Bigelow-Grant.19" from="Fifth-Bigelow-Grant" to="Fifth-WilliamPenn-Smithfield" />
<trip type="noVar" depart="226" id="Grant-Fourth-Forbes.271" from="Grant-Fourth-Forbes" to="Forbes-WilliamPenn-Smithfield" />
<trip type="noVar" depart="228" id="Forbes-Smithfield-WilliamPenn.20" from="Forbes-Smithfield-WilliamPenn" to="WilliamPenn-Forbes-Fourth" />
<trip type="noVar" depart="229" id="Sixth-Grant-WilliamPenn.84" from="Sixth-Grant-WilliamPenn" to="Sixth-WilliamPenn-Smithfield" />
<trip type="noVar" depart="230" id="Grant-Fourth-Forbes.124" from="Grant-Fourth-Forbes" to="Grant-Oliver-Sixth" />
<trip type="noVar" depart="230" id="Grant-Fourth-Forbes.600" from="Grant-Fourth-Forbes" to="Grant-Oliver-Sixth" />
<trip type="noVar" depart="231" id="Fifth-Bigelow-Grant.210" from="Fifth-Bigelow-Grant" to="Fifth-WilliamPenn-Smithfield" />
<trip type="noVar" depart="231" id="Forbes-Bigelow-Grant.307" from="Forbes-Bigelow-Grant" to="Forbes-WilliamPenn-Smithfield" />
<trip type="noVar" depart="234" id="Grant-Sixth-Oliver.86" from="Grant-Sixth-Oliver" to="Grant-Forbes-Fourth" />
<trip type="noVar" depart="238" id="Grant-Fourth-Forbes.108" from="Grant-Fourth-Forbes" to="Forbes-WilliamPenn-Smithfield" />
<trip type="noVar" depart="239" id="Forbes-Smithfield-WilliamPenn.41" from="Forbes-Smithfield-WilliamPenn" to="WilliamPenn-Forbes-Fourth" />
<trip type="noVar" depart="243" id="Fifth-Smithfield-WilliamPenn.115" from="Fifth-Smithfield-WilliamPenn" to="Fifth-Grant-Bigelow" />
<trip type="noVar" depart="243" id="Fifth-Smithfield-WilliamPenn.120" from="Fifth-Smithfield-WilliamPenn" to="Fifth-Grant-Bigelow" />
<trip type="noVar" depart="243" id="Grant-Fourth-Forbes.449" from="Grant-Fourth-Forbes" to="Fifth-Grant-Bigelow" />
<trip type="noVar" depart="246" id="Forbes-Bigelow-Grant.138" from="Forbes-Bigelow-Grant" to="WilliamPenn-Forbes-Fourth" />
<trip type="noVar" depart="248" id="Sixth-Grant-WilliamPenn.113" from="Sixth-Grant-WilliamPenn" to="Sixth-WilliamPenn-Smithfield" />
<trip type="noVar" depart="248" id="Sixth-Smithfield-WilliamPenn.0" from="Sixth-Smithfield-WilliamPenn" to="Sixth-WilliamPenn-Grant" />
<trip type="noVar" depart="248" id="Grant-Fourth-Forbes.552" from="Grant-Fourth-Forbes" to="Forbes-Grant-Bigelow" />
<trip type="noVar" depart="249" id="Grant-Fourth-Forbes.190" from="Grant-Fourth-Forbes" to="Forbes-Grant-Bigelow" />
<trip type="noVar" depart="252" id="WilliamPenn-Seventh-Sixth.183" from="WilliamPenn-Seventh-Sixth" to="Oliver-WilliamPenn-Smithfield" />
<trip type="noVar" depart="252" id="Grant-Sixth-Oliver.252" from="Grant-Sixth-Oliver" to="Grant-Forbes-Fourth" />
<trip type="noVar" depart="253" id="Fifth-Smithfield-WilliamPenn.33" from="Fifth-Smithfield-WilliamPenn" to="Fifth-Grant-Bigelow" />
<trip type="noVar" depart="253" id="Forbes-Bigelow-Grant.13" from="Forbes-Bigelow-Grant" to="WilliamPenn-Forbes-Fourth" />
<trip type="noVar" depart="253" id="Grant-Fourth-Forbes.427" from="Grant-Fourth-Forbes" to="Grant-Oliver-Sixth" />
<trip type="noVar" depart="254" id="WilliamPenn-Seventh-Sixth.69" from="WilliamPenn-Seventh-Sixth" to="Fifth-WilliamPenn-Smithfield" />
<trip type="noVar" depart="259" id="Sixth-Grant-WilliamPenn.301" from="Sixth-Grant-WilliamPenn" to="Sixth-WilliamPenn-Smithfield" />
<trip type="noVar" depart="260" id="Sixth-Smithfield-WilliamPenn.34" from="Sixth-Smithfield-WilliamPenn" to="Sixth-WilliamPenn-Grant" />
<trip type="noVar" depart="262" id="Sixth-Grant-WilliamPenn.58" from="Sixth-Grant-WilliamPenn" to="Sixth-WilliamPenn-Smithfield" />
<trip type="noVar" depart="262" id="WilliamPenn-Seventh-Sixth.148" from="WilliamPenn-Seventh-Sixth" to="Fifth-WilliamPenn-Smithfield" />
<trip type="noVar" depart="262" id="Forbes-Smithfield-WilliamPenn.47" from="Forbes-Smithfield-WilliamPenn" to="WilliamPenn-Forbes-Fourth" />
<trip type="noVar" depart="265" id="Sixth-Grant-WilliamPenn.319" from="Sixth-Grant-WilliamPenn" to="Sixth-WilliamPenn-Smithfield" />
<trip type="noVar" depart="265" id="Grant-Fourth-Forbes.369" from="Grant-Fourth-Forbes" to="WilliamPenn-Forbes-Fourth" />
<trip type="noVar" depart="266" id="Forbes-Bigelow-Grant.155" from="Forbes-Bigelow-Grant" to="WilliamPenn-Forbes-Fourth" />
<trip type="noVar" depart="267" id="Forbes-Bigelow-Grant.72" from="Forbes-Bigelow-Grant" to="WilliamPenn-Forbes-Fourth" />
<trip type="noVar" depart="270" id="Forbes-Bigelow-Grant.243" from="Forbes-Bigelow-Grant" to="Forbes-WilliamPenn-Smithfield" />
<trip type="noVar" depart="272" id="Oliver-Smithfield-WilliamPenn.84" from="Oliver-Smithfield-WilliamPenn" to="Grant-Forbes-Fourth" />
<trip type="noVar" depart="272" id="Oliver-Smithfield-WilliamPenn.121" from="Oliver-Smithfield-WilliamPenn" to="WilliamPenn-Forbes-Fourth" />
<trip type="noVar" depart="273" id="Sixth-Grant-WilliamPenn.210" from="Sixth-Grant-WilliamPenn" to="Sixth-WilliamPenn-Smithfield" />
<trip type="noVar" depart="274" id="Fifth-Bigelow-Grant.326" from="Fifth-Bigelow-Grant" to="Fifth-WilliamPenn-Smithfield" />
<trip type="noVar" depart="275" id="Oliver-Smithfield-WilliamPenn.156" from="Oliver-Smithfield-WilliamPenn" to="Grant-Oliver-Sixth" />
<trip type="noVar" depart="275" id="Fifth-Bigelow-Grant.368" from="Fifth-Bigelow-Grant" to="Grant-Forbes-Fourth" />
<trip type="noVar" depart="275" id="Forbes-Bigelow-Grant.83" from="Forbes-Bigelow-Grant" to="WilliamPenn-Forbes-Fourth" />
<trip type="noVar" depart="275" id="Grant-Fourth-Forbes.476" from="Grant-Fourth-Forbes" to="Forbes-Grant-Bigelow" />
<trip type="noVar" depart="275" id="Forbes-Smithfield-WilliamPenn.28" from="Forbes-Smithfield-WilliamPenn" to="WilliamPenn-Forbes-Fourth" />
<trip type="noVar" depart="277" id="Sixth-Smithfield-WilliamPenn.209" from="Sixth-Smithfield-WilliamPenn" to="Sixth-WilliamPenn-Grant" />
<trip type="noVar" depart="277" id="Sixth-Smithfield-WilliamPenn.278" from="Sixth-Smithfield-WilliamPenn" to="Fifth-WilliamPenn-Smithfield" />