<?xml version="1.0" encoding="UTF-8"?>
<routes xmlns:xsi="http://www.w3.org/2001/XMLSchema-instance" xsi:noNamespaceSchemaLocation="http://sumo.dlr.de/xsd/routes_file.xsd">

<vType id="noVar" speedFactor="1.0" speedDev="0.0"/>
<trip type="noVar" depart="22" id="Fifth-RHS-Ross.15" from="Fifth-RHS-Ross" to="Forbes-WilliamPenn-Smithfield" via="Fifth-Ross-Grant Grant-Fifth-Forbes Forbes-Grant-WilliamPenn"  />
<trip type="noVar" depart="29" id="Fifth-Smithfield-WilliamPenn.9" from="Fifth-Smithfield-WilliamPenn" to="Fifth-Ross-RHS" via="Fifth-WilliamPenn-Grant Fifth-Grant-Ross"  />
<trip type="noVar" depart="31" id="Ross-Fourth-Forbes.45" from="Ross-Fourth-Forbes" to="Fifth-Ross-RHS" via="Ross-Forbes-Fifth"  />
<trip type="noVar" depart="43" id="Forbes-RHS-Ross.31" from="Forbes-RHS-Ross" to="Ross-Forbes-Fourth"  />
<trip type="noVar" depart="45" id="Fifth-RHS-Ross.5" from="Fifth-RHS-Ross" to="Grant-Sixth-Seventh" via="Fifth-Ross-Grant Grant-Fifth-Oliver Grant-Oliver-Sixth"  />
<trip type="noVar" depart="49" id="WilliamPenn-Seventh-Sixth.6" from="WilliamPenn-Seventh-Sixth" to="Grant-Sixth-Seventh" via="WilliamPenn-Sixth-Oliver Oliver-WilliamPenn-Grant Grant-Oliver-Sixth"  />
<trip type="noVar" depart="61" id="WilliamPenn-Seventh-Sixth.5" from="WilliamPenn-Seventh-Sixth" to="Grant-Sixth-Seventh" via="Sixth-WilliamPenn-Grant"  />
<trip type="noVar" depart="73" id="Ross-Fourth-Forbes.38" from="Ross-Fourth-Forbes" to="Fifth-Ross-RHS" via="Ross-Forbes-Fifth"  />
<trip type="noVar" depart="75" id="Oliver-Smithfield-WilliamPenn.13" from="Oliver-Smithfield-WilliamPenn" to="Grant-Sixth-Seventh" via="Oliver-WilliamPenn-Grant Grant-Oliver-Sixth"  />
<trip type="noVar" depart="87" id="Grant-Fourth-Forbes.15" from="Grant-Fourth-Forbes" to="Grant-Sixth-Seventh" via="Grant-Forbes-Fifth Grant-Fifth-Oliver Grant-Oliver-Sixth"  />
<trip type="noVar" depart="95" id="Ross-Seventh-Sixth.62" from="Ross-Seventh-Sixth" to="WilliamPenn-Forbes-Fourth" via="Ross-Sixth-Fifth Fifth-Ross-Grant Fifth-Grant-WilliamPenn WilliamPenn-Fifth-Forbes"  />
<trip type="noVar" depart="101" id="Grant-Seventh-Sixth.39" from="Grant-Seventh-Sixth" to="Grant-Forbes-Fourth" via="Grant-Sixth-Oliver Grant-Oliver-Fifth Grant-Fifth-Forbes"  />
<trip type="noVar" depart="101" id="Sixth-RHS-Ross.15" from="Sixth-RHS-Ross" to="Ross-Sixth-Seventh"  />
<trip type="noVar" depart="117" id="Ross-Seventh-Sixth.27" from="Ross-Seventh-Sixth" to="Sixth-WilliamPenn-Smithfield" via="Sixth-Ross-Grant Sixth-Grant-WilliamPenn"  />
<trip type="noVar" depart="130" id="Grant-Fourth-Forbes.45" from="Grant-Fourth-Forbes" to="Grant-Sixth-Seventh" via="Grant-Forbes-Fifth Grant-Fifth-Oliver Grant-Oliver-Sixth"  />
<trip type="noVar" depart="166" id="Fifth-RHS-Ross.39" from="Fifth-RHS-Ross" to="Grant-Forbes-Fourth" via="Fifth-Ross-Grant Grant-Fifth-Forbes"  />
<trip type="noVar" depart="176" id="Ross-Seventh-Sixth.47" from="Ross-Seventh-Sixth" to="Fifth-Ross-RHS" via="Ross-Sixth-Fifth"  />
<trip type="noVar" depart="180" id="Sixth-RHS-Ross.46" from="Sixth-RHS-Ross" to="Sixth-WilliamPenn-Smithfield" via="Sixth-Ross-Grant Sixth-Grant-WilliamPenn"  />
<trip type="noVar" depart="184" id="Ross-Fourth-Forbes.42" from="Ross-Fourth-Forbes" to="Fifth-Ross-RHS" via="Ross-Forbes-Fifth"  />
<trip type="noVar" depart="199" id="Forbes-RHS-Ross.34" from="Forbes-RHS-Ross" to="Ross-Forbes-Fourth"  />
<trip type="noVar" depart="204" id="Sixth-Smithfield-WilliamPenn.2" from="Sixth-Smithfield-WilliamPenn" to="Ross-Sixth-Seventh" via="Sixth-WilliamPenn-Grant Sixth-Grant-Ross"  />
<trip type="noVar" depart="211" id="Oliver-Smithfield-WilliamPenn.31" from="Oliver-Smithfield-WilliamPenn" to="Grant-Sixth-Seventh" via="Oliver-WilliamPenn-Grant Grant-Oliver-Sixth"  />
<trip type="noVar" depart="215" id="Ross-Seventh-Sixth.57" from="Ross-Seventh-Sixth" to="Sixth-Ross-RHS"  />
<trip type="noVar" depart="218" id="Sixth-Smithfield-WilliamPenn.4" from="Sixth-Smithfield-WilliamPenn" to="Sixth-Ross-RHS" via="Sixth-WilliamPenn-Grant Sixth-Grant-Ross"  />
<trip type="noVar" depart="230" id="Oliver-Smithfield-WilliamPenn.9" from="Oliver-Smithfield-WilliamPenn" to="Fifth-WilliamPenn-Smithfield" via="Oliver-WilliamPenn-Grant Grant-Oliver-Sixth Sixth-Grant-Ross Ross-Sixth-Fifth Fifth-Ross-Grant Fifth-Grant-WilliamPenn"  />
<trip type="noVar" depart="231" id="Fifth-RHS-Ross.17" from="Fifth-RHS-Ross" to="Fifth-WilliamPenn-Smithfield" via="Fifth-Ross-Grant Fifth-Grant-WilliamPenn"  />
<trip type="noVar" depart="235" id="Fifth-RHS-Ross.6" from="Fifth-RHS-Ross" to="Ross-Forbes-Fourth" via="Ross-Fifth-Forbes"  />
<trip type="noVar" depart="243" id="Sixth-RHS-Ross.41" from="Sixth-RHS-Ross" to="Grant-Forbes-Fourth" via="Sixth-Ross-Grant Grant-Sixth-Oliver Grant-Oliver-Fifth Grant-Fifth-Forbes"  />
<trip type="noVar" depart="244" id="Forbes-RHS-Ross.5" from="Forbes-RHS-Ross" to="WilliamPenn-Forbes-Fourth" via="Forbes-Ross-Grant Forbes-Grant-WilliamPenn"  />
<trip type="noVar" depart="254" id="Grant-Fourth-Forbes.2" from="Grant-Fourth-Forbes" to="Grant-Sixth-Seventh" via="Grant-Forbes-Fifth Grant-Fifth-Oliver Grant-Oliver-Sixth"  />
<trip type="noVar" depart="256" id="Sixth-RHS-Ross.47" from="Sixth-RHS-Ross" to="Sixth-WilliamPenn-Smithfield" via="Sixth-Ross-Grant Sixth-Grant-WilliamPenn"  />
<trip type="noVar" depart="259" id="Ross-Fourth-Forbes.48" from="Ross-Fourth-Forbes" to="Forbes-Ross-RHS"  />
<trip type="noVar" depart="266" id="Sixth-Smithfield-WilliamPenn.28" from="Sixth-Smithfield-WilliamPenn" to="Fifth-WilliamPenn-Smithfield" via="Sixth-WilliamPenn-Grant Grant-Sixth-Oliver Grant-Oliver-Fifth Fifth-Grant-WilliamPenn"  />
<trip type="noVar" depart="267" id="WilliamPenn-Seventh-Sixth.17" from="WilliamPenn-Seventh-Sixth" to="Sixth-WilliamPenn-Smithfield"  />
<trip type="noVar" depart="278" id="Sixth-Smithfield-WilliamPenn.9" from="Sixth-Smithfield-WilliamPenn" to="Sixth-Ross-RHS" via="Sixth-WilliamPenn-Grant Sixth-Grant-Ross"  />
<trip type="noVar" depart="280" id="Fifth-RHS-Ross.18" from="Fifth-RHS-Ross" to="Ross-Forbes-Fourth" via="Ross-Fifth-Forbes"  />
<trip type="noVar" depart="284" id="Ross-Seventh-Sixth.6" from="Ross-Seventh-Sixth" to="Ross-Forbes-Fourth" via="Ross-Sixth-Fifth Ross-Fifth-Forbes"  />
<trip type="noVar" depart="290" id="Oliver-Smithfield-WilliamPenn.17" from="Oliver-Smithfield-WilliamPenn" to="WilliamPenn-Forbes-Fourth" via="WilliamPenn-Oliver-Fifth WilliamPenn-Fifth-Forbes"  />
<trip type="noVar" depart="296" id="Grant-Seventh-Sixth.43" from="Grant-Seventh-Sixth" to="Grant-Forbes-Fourth" via="Grant-Sixth-Oliver Grant-Oliver-Fifth Grant-Fifth-Forbes"  />
<trip type="noVar" depart="305" id="Grant-Fourth-Forbes.30" from="Grant-Fourth-Forbes" to="Grant-Sixth-Seventh" via="Grant-Forbes-Fifth Grant-Fifth-Oliver Grant-Oliver-Sixth"  />
<trip type="noVar" depart="320" id="Grant-Seventh-Sixth.34" from="Grant-Seventh-Sixth" to="Grant-Forbes-Fourth" via="Grant-Sixth-Oliver Grant-Oliver-Fifth Grant-Fifth-Forbes"  />
<trip type="noVar" depart="328" id="Oliver-Smithfield-WilliamPenn.23" from="Oliver-Smithfield-WilliamPenn" to="Grant-Sixth-Seventh" via="Oliver-WilliamPenn-Grant Grant-Oliver-Sixth"  />
<trip type="noVar" depart="331" id="Ross-Seventh-Sixth.40" from="Ross-Seventh-Sixth" to="Sixth-Ross-RHS"  />
<trip type="noVar" depart="335" id="Sixth-RHS-Ross.17" from="Sixth-RHS-Ross" to="WilliamPenn-Forbes-Fourth" via="Sixth-Ross-Grant Sixth-Grant-WilliamPenn WilliamPenn-Sixth-Oliver WilliamPenn-Oliver-Fifth WilliamPenn-Fifth-Forbes"  />
<trip type="noVar" depart="341" id="Forbes-RHS-Ross.21" from="Forbes-RHS-Ross" to="Ross-Forbes-Fourth"  />
<trip type="noVar" depart="346" id="Forbes-RHS-Ross.25" from="Forbes-RHS-Ross" to="Grant-Forbes-Fourth" via="Forbes-Ross-Grant"  />
<trip type="noVar" depart="348" id="Sixth-RHS-Ross.32" from="Sixth-RHS-Ross" to="Sixth-WilliamPenn-Smithfield" via="Sixth-Ross-Grant Sixth-Grant-WilliamPenn"  />
<trip type="noVar" depart="357" id="Grant-Seventh-Sixth.0" from="Grant-Seventh-Sixth" to="Forbes-WilliamPenn-Smithfield" via="Grant-Sixth-Oliver Grant-Oliver-Fifth Grant-Fifth-Forbes Forbes-Grant-WilliamPenn"  />
<trip type="noVar" depart="358" id="Grant-Fourth-Forbes.34" from="Grant-Fourth-Forbes" to="Forbes-Ross-RHS" via="Forbes-Grant-Ross"  />
<trip type="noVar" depart="360" id="Sixth-Smithfield-WilliamPenn.42" from="Sixth-Smithfield-WilliamPenn" to="Forbes-WilliamPenn-Smithfield" via="WilliamPenn-Sixth-Oliver WilliamPenn-Oliver-Fifth WilliamPenn-Fifth-Forbes"  />
<trip type="noVar" depart="367" id="Ross-Seventh-Sixth.26" from="Ross-Seventh-Sixth" to="Fifth-Ross-RHS" via="Ross-Sixth-Fifth"  />
<trip type="noVar" depart="378" id="Ross-Fourth-Forbes.11" from="Ross-Fourth-Forbes" to="Forbes-Ross-RHS"  />
<trip type="noVar" depart="381" id="Grant-Seventh-Sixth.56" from="Grant-Seventh-Sixth" to="Sixth-Ross-RHS" via="Sixth-Grant-Ross"  />
<trip type="noVar" depart="382" id="Grant-Fifth-Oliver.2" from="Grant-Fifth-Oliver" to="Fifth-Ross-RHS" via="Grant-Oliver-Sixth Sixth-Grant-WilliamPenn WilliamPenn-Sixth-Oliver WilliamPenn-Oliver-Fifth Fifth-WilliamPenn-Grant Fifth-Grant-Ross"  />
<trip type="noVar" depart="400" id="Oliver-Smithfield-WilliamPenn.2" from="Oliver-Smithfield-WilliamPenn" to="Grant-Sixth-Seventh" via="Oliver-WilliamPenn-Grant Grant-Oliver-Sixth"  />
<trip type="noVar" depart="404" id="Ross-Seventh-Sixth.21" from="Ross-Seventh-Sixth" to="Sixth-Ross-RHS"  />
<trip type="noVar" depart="404" id="Forbes-RHS-Ross.30" from="Forbes-RHS-Ross" to="Forbes-WilliamPenn-Smithfield" via="Forbes-Ross-Grant Forbes-Grant-WilliamPenn"  />
<trip type="noVar" depart="404" id="Ross-Fourth-Forbes.13" from="Ross-Fourth-Forbes" to="Forbes-Ross-RHS"  />
<trip type="noVar" depart="409" id="Ross-Fourth-Forbes.31" from="Ross-Fourth-Forbes" to="Fifth-Ross-RHS" via="Ross-Forbes-Fifth"  />
<trip type="noVar" depart="418" id="Oliver-Smithfield-WilliamPenn.24" from="Oliver-Smithfield-WilliamPenn" to="Grant-Sixth-Seventh" via="Oliver-WilliamPenn-Grant Grant-Oliver-Sixth"  />
<trip type="noVar" depart="424" id="Oliver-Smithfield-WilliamPenn.11" from="Oliver-Smithfield-WilliamPenn" to="WilliamPenn-Forbes-Fourth" via="WilliamPenn-Oliver-Fifth WilliamPenn-Fifth-Forbes"  />
<trip type="noVar" depart="432" id="Grant-Seventh-Sixth.33" from="Grant-Seventh-Sixth" to="Sixth-Ross-RHS" via="Sixth-Grant-Ross"  />
<trip type="noVar" depart="436" id="WilliamPenn-Seventh-Sixth.27" from="WilliamPenn-Seventh-Sixth" to="Sixth-WilliamPenn-Smithfield"  />
<trip type="noVar" depart="436" id="Ross-Seventh-Sixth.36" from="Ross-Seventh-Sixth" to="Fifth-Ross-RHS" via="Sixth-Ross-Grant Grant-Sixth-Oliver Grant-Oliver-Fifth Fifth-Grant-Ross"  />
<trip type="noVar" depart="444" id="WilliamPenn-Seventh-Sixth.0" from="WilliamPenn-Seventh-Sixth" to="Fifth-WilliamPenn-Smithfield" via="WilliamPenn-Sixth-Oliver WilliamPenn-Oliver-Fifth"  />
<trip type="noVar" depart="445" id="Fifth-RHS-Ross.12" from="Fifth-RHS-Ross" to="WilliamPenn-Forbes-Fourth" via="Fifth-Ross-Grant Fifth-Grant-WilliamPenn WilliamPenn-Fifth-Forbes"  />
<trip type="noVar" depart="447" id="Ross-Fourth-Forbes.7" from="Ross-Fourth-Forbes" to="Forbes-WilliamPenn-Smithfield" via="Forbes-Ross-Grant Forbes-Grant-WilliamPenn"  />
<trip type="noVar" depart="459" id="Grant-Fourth-Forbes.44" from="Grant-Fourth-Forbes" to="Forbes-Ross-RHS" via="Forbes-Grant-Ross"  />
<trip type="noVar" depart="460" id="Ross-Seventh-Sixth.23" from="Ross-Seventh-Sixth" to="Sixth-Ross-RHS"  />
<trip type="noVar" depart="475" id="Sixth-RHS-Ross.10" from="Sixth-RHS-Ross" to="Grant-Sixth-Seventh" via="Sixth-Ross-Grant"  />
<trip type="noVar" depart="478" id="Ross-Fourth-Forbes.24" from="Ross-Fourth-Forbes" to="Forbes-Ross-RHS"  />
<trip type="noVar" depart="485" id="Fifth-RHS-Ross.2" from="Fifth-RHS-Ross" to="Sixth-Ross-RHS" via="Fifth-Ross-Grant Grant-Fifth-Oliver Grant-Oliver-Sixth Sixth-Grant-Ross"  />
<trip type="noVar" depart="488" id="Grant-Fourth-Forbes.25" from="Grant-Fourth-Forbes" to="Forbes-Ross-RHS" via="Forbes-Grant-Ross"  />
<trip type="noVar" depart="504" id="Sixth-Smithfield-WilliamPenn.33" from="Sixth-Smithfield-WilliamPenn" to="Grant-Forbes-Fourth" via="Sixth-WilliamPenn-Grant Grant-Sixth-Oliver Grant-Oliver-Fifth Grant-Fifth-Forbes"  />
<trip type="noVar" depart="505" id="Grant-Fourth-Forbes.47" from="Grant-Fourth-Forbes" to="WilliamPenn-Forbes-Fourth" via="Forbes-Grant-WilliamPenn"  />
<trip type="noVar" depart="510" id="Sixth-Smithfield-WilliamPenn.35" from="Sixth-Smithfield-WilliamPenn" to="Sixth-Ross-RHS" via="Sixth-WilliamPenn-Grant Sixth-Grant-Ross"  />
<trip type="noVar" depart="510" id="Sixth-RHS-Ross.22" from="Sixth-RHS-Ross" to="Grant-Forbes-Fourth" via="Sixth-Ross-Grant Grant-Sixth-Oliver Grant-Oliver-Fifth Grant-Fifth-Forbes"  />
<trip type="noVar" depart="518" id="WilliamPenn-Seventh-Sixth.15" from="WilliamPenn-Seventh-Sixth" to="Fifth-WilliamPenn-Smithfield" via="WilliamPenn-Sixth-Oliver WilliamPenn-Oliver-Fifth"  />
<trip type="noVar" depart="522" id="Forbes-RHS-Ross.24" from="Forbes-RHS-Ross" to="Forbes-WilliamPenn-Smithfield" via="Forbes-Ross-Grant Forbes-Grant-WilliamPenn"  />
<trip type="noVar" depart="525" id="Grant-Fourth-Forbes.6" from="Grant-Fourth-Forbes" to="Grant-Sixth-Seventh" via="Grant-Forbes-Fifth Grant-Fifth-Oliver Grant-Oliver-Sixth"  />
<trip type="noVar" depart="533" id="WilliamPenn-Seventh-Sixth.23" from="WilliamPenn-Seventh-Sixth" to="Sixth-WilliamPenn-Smithfield"  />
<trip type="noVar" depart="540" id="Sixth-RHS-Ross.16" from="Sixth-RHS-Ross" to="Ross-Sixth-Seventh"  />
<trip type="noVar" depart="540" id="Sixth-RHS-Ross.26" from="Sixth-RHS-Ross" to="Oliver-WilliamPenn-Smithfield" via="Sixth-Ross-Grant Sixth-Grant-WilliamPenn WilliamPenn-Sixth-Oliver"  />
<trip type="noVar" depart="551" id="Grant-Fourth-Forbes.24" from="Grant-Fourth-Forbes" to="Grant-Sixth-Seventh" via="Grant-Forbes-Fifth Grant-Fifth-Oliver Grant-Oliver-Sixth"  />
<trip type="noVar" depart="561" id="Ross-Seventh-Sixth.44" from="Ross-Seventh-Sixth" to="Fifth-Ross-RHS" via="Ross-Sixth-Fifth"  />
<trip type="noVar" depart="564" id="Grant-Seventh-Sixth.7" from="Grant-Seventh-Sixth" to="Sixth-Ross-RHS" via="Sixth-Grant-Ross"  />
<trip type="noVar" depart="567" id="Ross-Seventh-Sixth.22" from="Ross-Seventh-Sixth" to="Ross-Forbes-Fourth" via="Ross-Sixth-Fifth Ross-Fifth-Forbes"  />
<trip type="noVar" depart="583" id="Ross-Fourth-Forbes.41" from="Ross-Fourth-Forbes" to="Ross-Sixth-Seventh" via="Ross-Forbes-Fifth Ross-Fifth-Sixth"  />
<trip type="noVar" depart="585" id="Sixth-RHS-Ross.29" from="Sixth-RHS-Ross" to="Ross-Sixth-Seventh"  />
<trip type="noVar" depart="593" id="Ross-Fourth-Forbes.12" from="Ross-Fourth-Forbes" to="Grant-Forbes-Fourth" via="Forbes-Ross-Grant"  />
<trip type="noVar" depart="618" id="Fifth-RHS-Ross.38" from="Fifth-RHS-Ross" to="Fifth-WilliamPenn-Smithfield" via="Fifth-Ross-Grant Fifth-Grant-WilliamPenn"  />
<trip type="noVar" depart="633" id="Forbes-RHS-Ross.46" from="Forbes-RHS-Ross" to="WilliamPenn-Forbes-Fourth" via="Forbes-Ross-Grant Forbes-Grant-WilliamPenn"  />
<trip type="noVar" depart="637" id="Sixth-Smithfield-WilliamPenn.1" from="Sixth-Smithfield-WilliamPenn" to="Ross-Sixth-Seventh" via="Sixth-WilliamPenn-Grant Sixth-Grant-Ross"  />
<trip type="noVar" depart="647" id="Forbes-RHS-Ross.2" from="Forbes-RHS-Ross" to="Forbes-WilliamPenn-Smithfield" via="Forbes-Ross-Grant Forbes-Grant-WilliamPenn"  />
<trip type="noVar" depart="650" id="Forbes-RHS-Ross.14" from="Forbes-RHS-Ross" to="Ross-Forbes-Fourth"  />
<trip type="noVar" depart="657" id="WilliamPenn-Seventh-Sixth.16" from="WilliamPenn-Seventh-Sixth" to="WilliamPenn-Forbes-Fourth" via="WilliamPenn-Sixth-Oliver WilliamPenn-Oliver-Fifth WilliamPenn-Fifth-Forbes"  />
<trip type="noVar" depart="661" id="WilliamPenn-Seventh-Sixth.4" from="WilliamPenn-Seventh-Sixth" to="WilliamPenn-Forbes-Fourth" via="WilliamPenn-Sixth-Oliver WilliamPenn-Oliver-Fifth WilliamPenn-Fifth-Forbes"  />
<trip type="noVar" depart="662" id="Sixth-RHS-Ross.28" from="Sixth-RHS-Ross" to="Grant-Sixth-Seventh" via="Sixth-Ross-Grant"  />
<trip type="noVar" depart="671" id="Grant-Fourth-Forbes.19" from="Grant-Fourth-Forbes" to="Forbes-WilliamPenn-Smithfield" via="Forbes-Grant-WilliamPenn"  />
<trip type="noVar" depart="675" id="Ross-Fourth-Forbes.6" from="Ross-Fourth-Forbes" to="Sixth-Ross-RHS" via="Ross-Forbes-Fifth Ross-Fifth-Sixth"  />
<trip type="noVar" depart="677" id="Ross-Seventh-Sixth.25" from="Ross-Seventh-Sixth" to="Fifth-Ross-RHS" via="Ross-Sixth-Fifth"  />
<trip type="noVar" depart="678" id="WilliamPenn-Seventh-Sixth.7" from="WilliamPenn-Seventh-Sixth" to="Ross-Sixth-Seventh" via="Sixth-WilliamPenn-Grant Sixth-Grant-Ross"  />
<trip type="noVar" depart="681" id="Sixth-Smithfield-WilliamPenn.12" from="Sixth-Smithfield-WilliamPenn" to="Grant-Sixth-Seventh" via="Sixth-WilliamPenn-Grant"  />
<trip type="noVar" depart="692" id="Ross-Fourth-Forbes.1" from="Ross-Fourth-Forbes" to="Forbes-Ross-RHS"  />
<trip type="noVar" depart="700" id="Grant-Fourth-Forbes.7" from="Grant-Fourth-Forbes" to="Grant-Sixth-Seventh" via="Grant-Forbes-Fifth Grant-Fifth-Oliver Grant-Oliver-Sixth"  />
<trip type="noVar" depart="718" id="WilliamPenn-Seventh-Sixth.13" from="WilliamPenn-Seventh-Sixth" to="Sixth-Ross-RHS" via="Sixth-WilliamPenn-Grant Sixth-Grant-Ross"  />
<trip type="noVar" depart="726" id="Fifth-RHS-Ross.29" from="Fifth-RHS-Ross" to="Grant-Forbes-Fourth" via="Fifth-Ross-Grant Grant-Fifth-Forbes"  />
<trip type="noVar" depart="732" id="Grant-Seventh-Sixth.28" from="Grant-Seventh-Sixth" to="WilliamPenn-Forbes-Fourth" via="Grant-Sixth-Oliver Grant-Oliver-Fifth Grant-Fifth-Forbes Forbes-Grant-WilliamPenn"  />
<trip type="noVar" depart="732" id="Grant-Fourth-Forbes.9" from="Grant-Fourth-Forbes" to="Grant-Sixth-Seventh" via="Grant-Forbes-Fifth Grant-Fifth-Oliver Grant-Oliver-Sixth"  />
<trip type="noVar" depart="732" id="Ross-Seventh-Sixth.5" from="Ross-Seventh-Sixth" to="Sixth-Ross-RHS"  />
<trip type="noVar" depart="733" id="Grant-Fourth-Forbes.3" from="Grant-Fourth-Forbes" to="Forbes-WilliamPenn-Smithfield" via="Forbes-Grant-WilliamPenn"  />
<trip type="noVar" depart="743" id="Oliver-Smithfield-WilliamPenn.34" from="Oliver-Smithfield-WilliamPenn" to="Grant-Sixth-Seventh" via="Oliver-WilliamPenn-Grant Grant-Oliver-Sixth"  />
<trip type="noVar" depart="758" id="Forbes-RHS-Ross.55" from="Forbes-RHS-Ross" to="Ross-Sixth-Seventh" via="Forbes-Ross-Grant Grant-Forbes-Fifth Grant-Fifth-Oliver Grant-Oliver-Sixth Sixth-Grant-Ross"  />
<trip type="noVar" depart="766" id="WilliamPenn-Seventh-Sixth.26" from="WilliamPenn-Seventh-Sixth" to="Sixth-Ross-RHS" via="Sixth-WilliamPenn-Grant Sixth-Grant-Ross"  />
<trip type="noVar" depart="774" id="Ross-Seventh-Sixth.50" from="Ross-Seventh-Sixth" to="Fifth-Ross-RHS" via="Ross-Sixth-Fifth"  />
<trip type="noVar" depart="782" id="Grant-Seventh-Sixth.59" from="Grant-Seventh-Sixth" to="Grant-Forbes-Fourth" via="Grant-Sixth-Oliver Grant-Oliver-Fifth Grant-Fifth-Forbes"  />
<trip type="noVar" depart="792" id="Grant-Seventh-Sixth.64" from="Grant-Seventh-Sixth" to="Grant-Forbes-Fourth" via="Grant-Sixth-Oliver Grant-Oliver-Fifth Grant-Fifth-Forbes"  />
<trip type="noVar" depart="795" id="Sixth-Smithfield-WilliamPenn.22" from="Sixth-Smithfield-WilliamPenn" to="Ross-Sixth-Seventh" via="Sixth-WilliamPenn-Grant Sixth-Grant-Ross"  />
<trip type="noVar" depart="805" id="Sixth-Smithfield-WilliamPenn.10" from="Sixth-Smithfield-WilliamPenn" to="Sixth-Ross-RHS" via="Sixth-WilliamPenn-Grant Sixth-Grant-Ross"  />
<trip type="noVar" depart="820" id="Sixth-RHS-Ross.37" from="Sixth-RHS-Ross" to="Ross-Sixth-Seventh"  />
<trip type="noVar" depart="836" id="Sixth-RHS-Ross.7" from="Sixth-RHS-Ross" to="Sixth-WilliamPenn-Smithfield" via="Sixth-Ross-Grant Sixth-Grant-WilliamPenn"  />
<trip type="noVar" depart="845" id="Oliver-Smithfield-WilliamPenn.8" from="Oliver-Smithfield-WilliamPenn" to="Grant-Sixth-Seventh" via="Oliver-WilliamPenn-Grant Grant-Oliver-Sixth"  />
<trip type="noVar" depart="854" id="Grant-Seventh-Sixth.58" from="Grant-Seventh-Sixth" to="Grant-Forbes-Fourth" via="Grant-Sixth-Oliver Grant-Oliver-Fifth Grant-Fifth-Forbes"  />
<trip type="noVar" depart="860" id="Ross-Fourth-Forbes.8" from="Ross-Fourth-Forbes" to="Ross-Sixth-Seventh" via="Ross-Forbes-Fifth Ross-Fifth-Sixth"  />
<trip type="noVar" depart="865" id="Sixth-RHS-Ross.5" from="Sixth-RHS-Ross" to="Grant-Sixth-Seventh" via="Sixth-Ross-Grant"  />
<trip type="noVar" depart="875" id="Grant-Seventh-Sixth.47" from="Grant-Seventh-Sixth" to="Fifth-Ross-RHS" via="Grant-Sixth-Oliver Grant-Oliver-Fifth Fifth-Grant-Ross"  />
<trip type="noVar" depart="884" id="Oliver-Smithfield-WilliamPenn.26" from="Oliver-Smithfield-WilliamPenn" to="Sixth-Ross-RHS" via="Oliver-WilliamPenn-Grant Grant-Oliver-Sixth Sixth-Grant-Ross"  />
<trip type="noVar" depart="884" id="Fifth-Smithfield-WilliamPenn.2" from="Fifth-Smithfield-WilliamPenn" to="Ross-Forbes-Fourth" via="Fifth-WilliamPenn-Grant Fifth-Grant-Ross Ross-Fifth-Forbes"  />
<trip type="noVar" depart="890" id="Sixth-Smithfield-WilliamPenn.37" from="Sixth-Smithfield-WilliamPenn" to="Sixth-Ross-RHS" via="Sixth-WilliamPenn-Grant Sixth-Grant-Ross"  />
<trip type="noVar" depart="900" id="Grant-Fifth-Oliver.0" from="Grant-Fifth-Oliver" to="Sixth-WilliamPenn-Smithfield" via="Grant-Oliver-Sixth Sixth-Grant-WilliamPenn"  />
<trip type="noVar" depart="909" id="Sixth-Smithfield-WilliamPenn.41" from="Sixth-Smithfield-WilliamPenn" to="Grant-Forbes-Fourth" via="Sixth-WilliamPenn-Grant Grant-Sixth-Oliver Grant-Oliver-Fifth Grant-Fifth-Forbes"  />
<trip type="noVar" depart="914" id="Sixth-RHS-Ross.31" from="Sixth-RHS-Ross" to="Sixth-WilliamPenn-Smithfield" via="Sixth-Ross-Grant Sixth-Grant-WilliamPenn"  />
<trip type="noVar" depart="922" id="Forbes-RHS-Ross.12" from="Forbes-RHS-Ross" to="Grant-Forbes-Fourth" via="Forbes-Ross-Grant"  />
<trip type="noVar" depart="940" id="Sixth-RHS-Ross.14" from="Sixth-RHS-Ross" to="Grant-Sixth-Seventh" via="Sixth-Ross-Grant"  />
<trip type="noVar" depart="941" id="Grant-Seventh-Sixth.15" from="Grant-Seventh-Sixth" to="Forbes-Ross-RHS" via="Grant-Sixth-Oliver Grant-Oliver-Fifth Grant-Fifth-Forbes Forbes-Grant-Ross"  />
<trip type="noVar" depart="960" id="Fifth-RHS-Ross.22" from="Fifth-RHS-Ross" to="Fifth-WilliamPenn-Smithfield" via="Fifth-Ross-Grant Fifth-Grant-WilliamPenn"  />
<trip type="noVar" depart="980" id="WilliamPenn-Seventh-Sixth.31" from="WilliamPenn-Seventh-Sixth" to="Grant-Sixth-Seventh" via="WilliamPenn-Sixth-Oliver Oliver-WilliamPenn-Grant Grant-Oliver-Sixth"  />
<trip type="noVar" depart="990" id="Oliver-Smithfield-WilliamPenn.35" from="Oliver-Smithfield-WilliamPenn" to="WilliamPenn-Forbes-Fourth" via="WilliamPenn-Oliver-Fifth WilliamPenn-Fifth-Forbes"  />
<trip type="noVar" depart="991" id="Ross-Seventh-Sixth.17" from="Ross-Seventh-Sixth" to="Sixth-Ross-RHS"  />
<trip type="noVar" depart="992" id="Ross-Fourth-Forbes.4" from="Ross-Fourth-Forbes" to="Forbes-Ross-RHS"  />
<trip type="noVar" depart="995" id="Sixth-RHS-Ross.13" from="Sixth-RHS-Ross" to="Sixth-WilliamPenn-Smithfield" via="Sixth-Ross-Grant Sixth-Grant-WilliamPenn"  />
<trip type="noVar" depart="1001" id="Forbes-RHS-Ross.6" from="Forbes-RHS-Ross" to="Ross-Forbes-Fourth"  />
<trip type="noVar" depart="1010" id="Sixth-RHS-Ross.45" from="Sixth-RHS-Ross" to="Ross-Forbes-Fourth" via="Ross-Sixth-Fifth Ross-Fifth-Forbes"  />
<trip type="noVar" depart="1016" id="WilliamPenn-Seventh-Sixth.14" from="WilliamPenn-Seventh-Sixth" to="Grant-Sixth-Seventh" via="WilliamPenn-Sixth-Oliver Oliver-WilliamPenn-Grant Grant-Oliver-Sixth"  />
<trip type="noVar" depart="1018" id="Forbes-RHS-Ross.40" from="Forbes-RHS-Ross" to="Ross-Forbes-Fourth"  />
<trip type="noVar" depart="1030" id="Fifth-RHS-Ross.37" from="Fifth-RHS-Ross" to="Forbes-Ross-RHS" via="Fifth-Ross-Grant Grant-Fifth-Forbes Forbes-Grant-Ross"  />
<trip type="noVar" depart="1035" id="Ross-Seventh-Sixth.7" from="Ross-Seventh-Sixth" to="Fifth-Ross-RHS" via="Ross-Sixth-Fifth"  />
<trip type="noVar" depart="1040" id="Grant-Fifth-Oliver.1" from="Grant-Fifth-Oliver" to="Grant-Sixth-Seventh" via="Grant-Oliver-Sixth"  />
<trip type="noVar" depart="1041" id="Ross-Seventh-Sixth.45" from="Ross-Seventh-Sixth" to="Sixth-Ross-RHS"  />
<trip type="noVar" depart="1045" id="Fifth-RHS-Ross.27" from="Fifth-RHS-Ross" to="Fifth-WilliamPenn-Smithfield" via="Fifth-Ross-Grant Fifth-Grant-WilliamPenn"  />
<trip type="noVar" depart="1047" id="Grant-Seventh-Sixth.16" from="Grant-Seventh-Sixth" to="Fifth-Ross-RHS" via="Grant-Sixth-Oliver Grant-Oliver-Fifth Fifth-Grant-Ross"  />
<trip type="noVar" depart="1059" id="WilliamPenn-Seventh-Sixth.10" from="WilliamPenn-Seventh-Sixth" to="Oliver-WilliamPenn-Smithfield" via="WilliamPenn-Sixth-Oliver"  />
<trip type="noVar" depart="1059" id="Fifth-RHS-Ross.13" from="Fifth-RHS-Ross" to="Fifth-WilliamPenn-Smithfield" via="Fifth-Ross-Grant Fifth-Grant-WilliamPenn"  />
<trip type="noVar" depart="1060" id="Forbes-RHS-Ross.35" from="Forbes-RHS-Ross" to="Grant-Forbes-Fourth" via="Forbes-Ross-Grant"  />
<trip type="noVar" depart="1061" id="Grant-Seventh-Sixth.51" from="Grant-Seventh-Sixth" to="Fifth-Ross-RHS" via="Grant-Sixth-Oliver Grant-Oliver-Fifth Fifth-Grant-Ross"  />
<trip type="noVar" depart="1064" id="Ross-Seventh-Sixth.29" from="Ross-Seventh-Sixth" to="Grant-Sixth-Seventh" via="Sixth-Ross-Grant"  />
<trip type="noVar" depart="1065" id="WilliamPenn-Seventh-Sixth.19" from="WilliamPenn-Seventh-Sixth" to="Grant-Sixth-Seventh" via="Sixth-WilliamPenn-Grant"  />
<trip type="noVar" depart="1065" id="Forbes-Smithfield-WilliamPenn.0" from="Forbes-Smithfield-WilliamPenn" to="WilliamPenn-Forbes-Fourth"  />
<trip type="noVar" depart="1071" id="Sixth-Smithfield-WilliamPenn.23" from="Sixth-Smithfield-WilliamPenn" to="Sixth-Ross-RHS" via="Sixth-WilliamPenn-Grant Sixth-Grant-Ross"  />
<trip type="noVar" depart="1079" id="Fifth-Smithfield-WilliamPenn.1" from="Fifth-Smithfield-WilliamPenn" to="Sixth-Ross-RHS" via="Fifth-WilliamPenn-Grant Grant-Fifth-Oliver Grant-Oliver-Sixth Sixth-Grant-Ross"  />
<trip type="noVar" depart="1079" id="Ross-Seventh-Sixth.61" from="Ross-Seventh-Sixth" to="Sixth-Ross-RHS"  />
<trip type="noVar" depart="1099" id="Fifth-Smithfield-WilliamPenn.8" from="Fifth-Smithfield-WilliamPenn" to="Grant-Sixth-Seventh" via="Fifth-WilliamPenn-Grant Grant-Fifth-Oliver Grant-Oliver-Sixth"  />
<trip type="noVar" depart="1099" id="Ross-Fourth-Forbes.22" from="Ross-Fourth-Forbes" to="Ross-Sixth-Seventh" via="Ross-Forbes-Fifth Ross-Fifth-Sixth"  />
<trip type="noVar" depart="1113" id="WilliamPenn-Seventh-Sixth.3" from="WilliamPenn-Seventh-Sixth" to="Ross-Sixth-Seventh" via="Sixth-WilliamPenn-Grant Sixth-Grant-Ross"  />
<trip type="noVar" depart="1114" id="Grant-Fourth-Forbes.17" from="Grant-Fourth-Forbes" to="Grant-Sixth-Seventh" via="Grant-Forbes-Fifth Grant-Fifth-Oliver Grant-Oliver-Sixth"  />
<trip type="noVar" depart="1123" id="Grant-Seventh-Sixth.30" from="Grant-Seventh-Sixth" to="Grant-Forbes-Fourth" via="Grant-Sixth-Oliver Grant-Oliver-Fifth Grant-Fifth-Forbes"  />
<trip type="noVar" depart="1152" id="Grant-Seventh-Sixth.55" from="Grant-Seventh-Sixth" to="Sixth-Ross-RHS" via="Sixth-Grant-Ross"  />
<trip type="noVar" depart="1168" id="Sixth-RHS-Ross.35" from="Sixth-RHS-Ross" to="Sixth-WilliamPenn-Smithfield" via="Sixth-Ross-Grant Sixth-Grant-WilliamPenn"  />
<trip type="noVar" depart="1180" id="Forbes-RHS-Ross.43" from="Forbes-RHS-Ross" to="Forbes-WilliamPenn-Smithfield" via="Forbes-Ross-Grant Forbes-Grant-WilliamPenn"  />
<trip type="noVar" depart="1200" id="Grant-Fourth-Forbes.41" from="Grant-Fourth-Forbes" to="Grant-Sixth-Seventh" via="Grant-Forbes-Fifth Grant-Fifth-Oliver Grant-Oliver-Sixth"  />
<trip type="noVar" depart="1204" id="Fifth-Smithfield-WilliamPenn.6" from="Fifth-Smithfield-WilliamPenn" to="Sixth-WilliamPenn-Smithfield" via="Fifth-WilliamPenn-Grant Grant-Fifth-Oliver Grant-Oliver-Sixth Sixth-Grant-WilliamPenn"  />
<trip type="noVar" depart="1208" id="Forbes-RHS-Ross.27" from="Forbes-RHS-Ross" to="Grant-Forbes-Fourth" via="Forbes-Ross-Grant"  />
<trip type="noVar" depart="1209" id="Grant-Seventh-Sixth.35" from="Grant-Seventh-Sixth" to="Fifth-WilliamPenn-Smithfield" via="Grant-Sixth-Oliver Grant-Oliver-Fifth Fifth-Grant-WilliamPenn"  />
<trip type="noVar" depart="1227" id="Forbes-RHS-Ross.36" from="Forbes-RHS-Ross" to="WilliamPenn-Forbes-Fourth" via="Forbes-Ross-Grant Forbes-Grant-WilliamPenn"  />
<trip type="noVar" depart="1239" id="Ross-Seventh-Sixth.42" from="Ross-Seventh-Sixth" to="Sixth-Ross-RHS"  />
<trip type="noVar" depart="1261" id="Ross-Seventh-Sixth.12" from="Ross-Seventh-Sixth" to="Ross-Forbes-Fourth" via="Ross-Sixth-Fifth Ross-Fifth-Forbes"  />
<trip type="noVar" depart="1261" id="Ross-Seventh-Sixth.49" from="Ross-Seventh-Sixth" to="Sixth-Ross-RHS"  />
<trip type="noVar" depart="1281" id="Grant-Fourth-Forbes.42" from="Grant-Fourth-Forbes" to="Sixth-Ross-RHS" via="Grant-Forbes-Fifth Grant-Fifth-Oliver Grant-Oliver-Sixth Sixth-Grant-Ross"  />
<trip type="noVar" depart="1283" id="Forbes-RHS-Ross.10" from="Forbes-RHS-Ross" to="Grant-Forbes-Fourth" via="Forbes-Ross-Grant"  />
<trip type="noVar" depart="1296" id="WilliamPenn-Seventh-Sixth.24" from="WilliamPenn-Seventh-Sixth" to="Sixth-WilliamPenn-Smithfield"  />
<trip type="noVar" depart="1301" id="Grant-Seventh-Sixth.42" from="Grant-Seventh-Sixth" to="Ross-Sixth-Seventh" via="Sixth-Grant-Ross"  />
<trip type="noVar" depart="1303" id="Sixth-Smithfield-WilliamPenn.14" from="Sixth-Smithfield-WilliamPenn" to="WilliamPenn-Forbes-Fourth" via="WilliamPenn-Sixth-Oliver WilliamPenn-Oliver-Fifth WilliamPenn-Fifth-Forbes"  />
<trip type="noVar" depart="1306" id="Sixth-RHS-Ross.11" from="Sixth-RHS-Ross" to="Grant-Sixth-Seventh" via="Sixth-Ross-Grant"  />
<trip type="noVar" depart="1307" id="Grant-Seventh-Sixth.41" from="Grant-Seventh-Sixth" to="Grant-Forbes-Fourth" via="Grant-Sixth-Oliver Grant-Oliver-Fifth Grant-Fifth-Forbes"  />