<?xml version="1.0" encoding="UTF-8"?>

<!-- generated on 2025-06-09 22:54:53 by Eclipse SUMO netedit Version 1.20.0
<configuration xmlns:xsi="http://www.w3.org/2001/XMLSchema-instance" xsi:noNamespaceSchemaLocation="http://sumo.dlr.de/xsd/neteditConfiguration.xsd">

    <input>
        <sumo-net-file value="/Users/davidneiman/Documents/GitHub.nosync/traffic-routing/surtrac_test/pittsburghsmaller2l5big.net.xml"/>
    </input>

    <output>
        <output-file value="/Users/davidneiman/Documents/GitHub.nosync/traffic-routing/surtrac_test/pittsburghsmaller2l5big.net.xml"/>
        <output.street-names value="true"/>
    </output>

    <processing>
        <geometry.min-radius.fix.railways value="false"/>
        <geometry.max-grade.fix value="false"/>
        <offset.disable-normalization value="true"/>
        <lefthand value="0"/>
    </processing>

    <junctions>
        <no-internal-links value="true"/>
        <no-turnarounds value="true"/>
        <junctions.corner-detail value="5"/>
        <junctions.limit-turn-speed value="5.50"/>
        <rectangular-lane-cut value="0"/>
    </junctions>

    <pedestrian>
        <walkingareas value="0"/>
    </pedestrian>

</configuration>
-->

<net version="1.20" junctionCornerDetail="5" limitTurnSpeed="5.50" xmlns:xsi="http://www.w3.org/2001/XMLSchema-instance" xsi:noNamespaceSchemaLocation="http://sumo.dlr.de/xsd/net_file.xsd">

    <location netOffset="-584408.72,-4476613.85" convBoundary="-519.00,-804.00,1889.00,1660.00" origBoundary="-80.004731,40.435799,-79.988268,40.445849" projParameter="+proj=utm +zone=17 +ellps=WGS84 +datum=WGS84 +units=m +no_defs"/>

    <type id="highway.primary" priority="12" numLanes="2" speed="27.78" disallow="tram rail_urban rail rail_electric rail_fast ship" oneway="0"/>
    <type id="highway.residential" priority="3" numLanes="1" speed="13.89" disallow="tram rail_urban rail rail_electric rail_fast ship" oneway="0"/>
    <type id="highway.secondary" priority="11" numLanes="1" speed="27.78" disallow="tram rail_urban rail rail_electric rail_fast ship" oneway="0"/>
    <type id="highway.tertiary" priority="10" numLanes="1" speed="22.22" disallow="tram rail_urban rail rail_electric rail_fast ship" oneway="0"/>

    <edge id="Fifth-Grant-Ross" from="cluster_105096416_4599846711_8484284981_8484443895_8484443896_8484443903_8484443904_8484443905" to="J5" priority="-1">
        <lane id="Fifth-Grant-Ross_0" index="0" speed="13.89" length="54.13" shape="682.29,383.80 715.65,368.04"/>
        <lane id="Fifth-Grant-Ross_1" index="1" speed="13.89" length="54.13" shape="683.66,386.69 717.02,370.93"/>
        <lane id="Fifth-Grant-Ross_2" index="2" speed="13.89" length="54.13" shape="685.03,389.59 718.39,373.83"/>
    </edge>
    <edge id="Fifth-Grant-Ross-2" from="J5" to="cluster_105096435_8484284984_8484284985_8484285004_8484285005" priority="-1">
        <lane id="Fifth-Grant-Ross-2_0" index="0" speed="13.89" length="56.87" shape="724.40,367.76 760.95,353.47"/>
        <lane id="Fifth-Grant-Ross-2_1" index="1" speed="13.89" length="56.87" shape="725.56,370.74 762.11,356.45"/>
    </edge>
    <edge id="Fifth-Grant-WilliamPenn" from="cluster_105096416_4599846711_8484284981_8484443895_8484443896_8484443903_8484443904_8484443905" to="cluster_105012331_5312909754_5312909756_8484445227_8484452927" name="Fifth Avenue" priority="12" type="highway.primary" shape="664.43,401.02 661.31,402.48 632.27,416.13 599.89,431.97">
        <lane id="Fifth-Grant-WilliamPenn_0" index="0" disallow="tram rail_urban rail rail_electric rail_fast ship cable_car subway" speed="11.18" length="87.90" shape="664.44,409.85 635.73,423.34 603.41,439.16">
            <param key="origId" value="55169716"/>
        </lane>
        <lane id="Fifth-Grant-WilliamPenn_1" index="1" disallow="tram rail_urban rail rail_electric rail_fast ship cable_car subway" speed="11.18" length="87.90" shape="663.08,406.95 634.35,420.46 602.00,436.28">
            <param key="origId" value="55169716"/>
        </lane>
        <lane id="Fifth-Grant-WilliamPenn_2" index="2" disallow="tram rail_urban rail rail_electric rail_fast ship cable_car subway" speed="11.18" length="87.90" shape="661.73,404.05 632.96,417.57 600.59,433.41">
            <param key="origId" value="55169716"/>
        </lane>
        <param key="origFrom" value="8484443903"/>
        <param key="origTo" value="105096409"/>
    </edge>
    <edge id="Fifth-RHS-Ross" from="J4" to="104573441" priority="-1">
        <lane id="Fifth-RHS-Ross_0" index="0" speed="13.89" length="999.86" shape="1853.00,351.60 854.64,351.91"/>
    </edge>
    <edge id="Fifth-RHS-Ross-2" from="104573441" to="cluster_105096435_8484284984_8484284985_8484285004_8484285005" name="Fifth Avenue" priority="12" type="highway.primary" shape="853.14,350.31 791.95,351.87 784.15,351.99">
        <lane id="Fifth-RHS-Ross-2_0" index="0" disallow="tram rail_urban rail rail_electric rail_fast ship cable_car subway" speed="27.78" length="77.69" shape="851.76,355.15 792.12,356.67">
            <param key="origId" value="28727224"/>
        </lane>
        <lane id="Fifth-RHS-Ross-2_1" index="1" disallow="tram rail_urban rail rail_electric rail_fast ship cable_car subway" speed="27.78" length="77.69" shape="851.68,351.95 792.07,353.47">
            <param key="origId" value="28727224"/>
        </lane>
        <param key="origTo" value="8484285005"/>
    </edge>
    <edge id="Fifth-Ross-Grant" from="cluster_105096435_8484284984_8484284985_8484285004_8484285005" to="J5" priority="-1">
        <lane id="Fifth-Ross-Grant_0" index="0" speed="13.89" length="56.87" shape="763.28,359.43 726.73,373.72"/>
    </edge>
    <edge id="Fifth-Ross-Grant-2" from="J5" to="cluster_105096416_4599846711_8484284981_8484443895_8484443896_8484443903_8484443904_8484443905" priority="-1">
        <lane id="Fifth-Ross-Grant-2_0" index="0" speed="13.89" length="54.13" shape="722.49,382.51 689.13,398.27"/>
        <lane id="Fifth-Ross-Grant-2_1" index="1" speed="13.89" length="54.13" shape="721.12,379.61 687.76,395.37"/>
        <lane id="Fifth-Ross-Grant-2_2" index="2" speed="13.89" length="54.13" shape="719.75,376.72 686.39,392.48"/>
    </edge>
    <edge id="Fifth-Ross-RHS" from="cluster_105096435_8484284984_8484284985_8484285004_8484285005" to="104573441" name="Fifth Avenue" priority="12" type="highway.primary" shape="784.15,351.99 791.95,351.87 853.14,350.31">
        <lane id="Fifth-Ross-RHS_0" index="0" disallow="tram rail_urban rail rail_electric rail_fast ship cable_car subway" speed="27.78" length="77.69" shape="792.02,350.27 851.60,348.75">
            <param key="origId" value="28727224"/>
        </lane>
        <param key="origFrom" value="8484285005"/>
    </edge>
    <edge id="Fifth-Smithfield-WilliamPenn" from="J11" to="cluster_105096396_5312909851_5312909853_8484452925_8484461664" priority="-1">
        <lane id="Fifth-Smithfield-WilliamPenn_0" index="0" speed="13.89" length="1000.43" shape="-484.00,468.40 502.05,468.82"/>
    </edge>
    <edge id="Fifth-Smithfield-WilliamPenn-2" from="cluster_105096396_5312909851_5312909853_8484452925_8484461664" to="cluster_105012331_5312909754_5312909756_8484445227_8484452927" name="Fifth Avenue" priority="12" type="highway.primary" shape="521.15,467.38 522.16,466.92 589.38,436.91">
        <lane id="Fifth-Smithfield-WilliamPenn-2_0" index="0" disallow="tram rail_urban rail rail_electric rail_fast ship cable_car subway" speed="11.18" length="85.74" shape="519.16,463.01 520.19,462.54 586.54,432.92">
            <param key="origId" value="55169716"/>
        </lane>
        <lane id="Fifth-Smithfield-WilliamPenn-2_1" index="1" disallow="tram rail_urban rail rail_electric rail_fast ship cable_car subway" speed="11.18" length="85.74" shape="520.49,465.92 521.50,465.46 587.85,435.84">
            <param key="origId" value="55169716"/>
        </lane>
        <param key="origFrom" value="8484452925"/>
        <param key="origTo" value="5312909756"/>
    </edge>
    <edge id="Fifth-WilliamPenn-Grant" from="cluster_105012331_5312909754_5312909756_8484445227_8484452927" to="cluster_105096416_4599846711_8484284981_8484443895_8484443896_8484443903_8484443904_8484443905" name="Fifth Avenue" priority="12" type="highway.primary" shape="599.89,431.97 632.27,416.13 661.31,402.48 664.43,401.02">
        <lane id="Fifth-WilliamPenn-Grant_0" index="0" disallow="tram rail_urban rail rail_electric rail_fast ship cable_car subway" speed="11.18" length="87.90" shape="596.37,424.78 628.81,408.92 657.66,395.36">
            <param key="origId" value="55169716"/>
        </lane>
        <lane id="Fifth-WilliamPenn-Grant_1" index="1" disallow="tram rail_urban rail rail_electric rail_fast ship cable_car subway" speed="11.18" length="87.90" shape="597.78,427.66 630.19,411.80 659.01,398.26">
            <param key="origId" value="55169716"/>
        </lane>
        <lane id="Fifth-WilliamPenn-Grant_2" index="2" disallow="tram rail_urban rail rail_electric rail_fast ship cable_car subway" speed="11.18" length="87.90" shape="599.19,430.53 631.58,414.69 660.37,401.15">
            <param key="origId" value="55169716"/>
        </lane>
        <param key="origFrom" value="5312909754"/>
        <param key="origTo" value="105096409"/>
    </edge>
    <edge id="Fifth-WilliamPenn-Smithfield" from="cluster_105012331_5312909754_5312909756_8484445227_8484452927" to="cluster_105096396_5312909851_5312909853_8484452925_8484461664" name="Fifth Avenue" priority="12" type="highway.primary" shape="589.38,436.91 522.16,466.92 521.15,467.38">
        <lane id="Fifth-WilliamPenn-Smithfield_0" index="0" disallow="tram rail_urban rail rail_electric rail_fast ship cable_car subway" speed="11.18" length="85.74" shape="590.45,441.69 524.12,471.30 523.14,471.75">
            <param key="origId" value="55169716"/>
        </lane>
        <lane id="Fifth-WilliamPenn-Smithfield_1" index="1" disallow="tram rail_urban rail rail_electric rail_fast ship cable_car subway" speed="11.18" length="85.74" shape="589.15,438.76 522.81,468.38 521.81,468.84">
            <param key="origId" value="55169716"/>
        </lane>
        <param key="origFrom" value="5312909756"/>
        <param key="origTo" value="8484452925"/>
    </edge>
    <edge id="Forbes-Grant-Ross" from="cluster_105012740_4599846712_8484284976_8484284977_8484284978_8484443907_8484443908_8484443909" to="cluster_105012751_8484067060_8484067061_8484284979_8484284980" name="Forbes Avenue" priority="12" type="highway.primary" shape="643.52,313.78 646.52,312.28 687.86,291.63 731.39,271.26">
        <lane id="Forbes-Grant-Ross_0" index="0" disallow="tram rail_urban rail rail_electric rail_fast ship cable_car subway" speed="27.78" length="114.72" shape="644.52,307.91 685.77,287.31 723.23,269.78">
            <param key="origId" value="25795333"/>
        </lane>
        <lane id="Forbes-Grant-Ross_1" index="1" disallow="tram rail_urban rail rail_electric rail_fast ship cable_car subway" speed="27.78" length="114.72" shape="645.95,310.78 687.16,290.19 724.59,272.68">
            <param key="origId" value="25795333"/>
        </lane>
        <param key="origFrom" value="8484284976"/>
        <param key="origTo" value="8484284979"/>
    </edge>
    <edge id="Forbes-Grant-WilliamPenn" from="cluster_105012740_4599846712_8484284976_8484284977_8484284978_8484443907_8484443908_8484443909" to="cluster_104945598_8484284971_8484443912_8484445225" name="Forbes Avenue" priority="10" type="highway.tertiary" spreadType="center" shape="625.32,322.71 624.40,323.15 593.24,338.02 580.98,343.86 557.40,355.12">
        <lane id="Forbes-Grant-WilliamPenn_0" index="0" disallow="tram rail_urban rail rail_electric rail_fast ship cable_car subway" speed="22.22" length="89.64" shape="623.01,325.59 593.93,339.46 581.67,345.30 558.09,356.56">
            <param key="origId" value="11729055"/>
        </lane>
        <lane id="Forbes-Grant-WilliamPenn_1" index="1" disallow="tram rail_urban rail rail_electric rail_fast ship cable_car subway" speed="22.22" length="89.64" shape="621.63,322.70 592.55,336.58 580.29,342.42 556.71,353.68">
            <param key="origId" value="11729055"/>
        </lane>
        <param key="origFrom" value="8484443909"/>
        <param key="origTo" value="105012735"/>
    </edge>
    <edge id="Forbes-RHS-Ross" from="J7" to="cluster_3724219516_3724219519_684792169_8484285007" priority="-1">
        <lane id="Forbes-RHS-Ross_0" index="0" speed="13.89" length="1019.10" shape="1829.00,245.60 817.86,246.08"/>
    </edge>
    <edge id="Forbes-RHS-Ross-2" from="cluster_3724219516_3724219519_684792169_8484285007" to="cluster_105012751_8484067060_8484067061_8484284979_8484284980" name="Forbes Avenue" priority="12" type="highway.primary" shape="803.82,248.53 791.20,248.06 779.24,249.74 767.92,254.14 744.30,265.22">
        <lane id="Forbes-RHS-Ross-2_0" index="0" disallow="tram rail_urban rail rail_electric rail_fast ship cable_car subway" speed="27.78" length="77.16" shape="803.52,256.52 791.61,256.08 781.27,257.53 771.07,261.50 753.48,269.75">
            <param key="origId" value="153256196"/>
        </lane>
        <lane id="Forbes-RHS-Ross-2_1" index="1" disallow="tram rail_urban rail rail_electric rail_fast ship cable_car subway" speed="27.78" length="77.16" shape="803.64,253.33 791.45,252.87 780.46,254.42 769.81,258.55 752.12,266.85">
            <param key="origId" value="153256196"/>
        </lane>
        <lane id="Forbes-RHS-Ross-2_2" index="2" disallow="tram rail_urban rail rail_electric rail_fast ship cable_car subway" speed="27.78" length="77.16" shape="803.76,250.13 791.28,249.66 779.65,251.30 768.55,255.61 750.76,263.96">
            <param key="origId" value="153256196"/>
        </lane>
        <param key="origFrom" value="684792169"/>
        <param key="origTo" value="8484067061"/>
    </edge>
    <edge id="Forbes-Ross-Grant" from="cluster_105012751_8484067060_8484067061_8484284979_8484284980" to="cluster_105012740_4599846712_8484284976_8484284977_8484284978_8484443907_8484443908_8484443909" name="Forbes Avenue" priority="12" type="highway.primary" shape="731.39,271.26 687.86,291.63 646.52,312.28 643.52,313.78">
        <lane id="Forbes-Ross-Grant_0" index="0" disallow="tram rail_urban rail rail_electric rail_fast ship cable_car subway" speed="27.78" length="114.72" shape="728.66,281.37 691.34,298.83 650.24,319.36">
            <param key="origId" value="25795333"/>
        </lane>
        <lane id="Forbes-Ross-Grant_1" index="1" disallow="tram rail_urban rail rail_electric rail_fast ship cable_car subway" speed="27.78" length="114.72" shape="727.30,278.47 689.95,295.95 648.81,316.50">
            <param key="origId" value="25795333"/>
        </lane>
        <lane id="Forbes-Ross-Grant_2" index="2" disallow="tram rail_urban rail rail_electric rail_fast ship cable_car subway" speed="27.78" length="114.72" shape="725.94,275.58 688.56,293.07 647.38,313.64">
            <param key="origId" value="25795333"/>
        </lane>
        <param key="origFrom" value="8484284979"/>
        <param key="origTo" value="8484284976"/>
    </edge>
    <edge id="Forbes-Ross-RHS" from="cluster_105012751_8484067060_8484067061_8484284979_8484284980" to="cluster_3724219516_3724219519_684792169_8484285007" name="Forbes Avenue" priority="12" type="highway.primary" shape="744.30,265.22 767.92,254.14 779.24,249.74 791.20,248.06 803.82,248.53">
        <lane id="Forbes-Ross-RHS_0" index="0" disallow="tram rail_urban rail rail_electric rail_fast ship cable_car subway" speed="27.78" length="77.16" shape="748.05,258.16 766.03,249.73 778.02,245.06 790.95,243.25 804.00,243.73">
            <param key="origId" value="153256196"/>
        </lane>
        <lane id="Forbes-Ross-RHS_1" index="1" disallow="tram rail_urban rail rail_electric rail_fast ship cable_car subway" speed="27.78" length="77.16" shape="749.40,261.06 767.29,252.67 778.83,248.18 791.12,246.46 803.88,246.93">
            <param key="origId" value="153256196"/>
        </lane>
        <param key="origFrom" value="8484067061"/>
        <param key="origTo" value="684792169"/>
    </edge>
    <edge id="Forbes-Smithfield-WilliamPenn" from="J10" to="cluster_105012724_5312909842" priority="-1">
        <lane id="Forbes-Smithfield-WilliamPenn_0" index="0" speed="13.89" length="1000.98" shape="-519.00,392.40 479.26,392.47"/>
    </edge>
    <edge id="Forbes-Smithfield-WilliamPenn-2" from="cluster_105012724_5312909842" to="cluster_104945598_8484284971_8484443912_8484445225" name="Forbes Avenue" priority="10" type="highway.tertiary" shape="484.58,391.77 489.01,387.76 552.41,357.51">
        <lane id="Forbes-Smithfield-WilliamPenn-2_0" index="0" disallow="tram rail_urban rail rail_electric rail_fast ship cable_car subway" speed="22.22" length="81.09" shape="483.51,390.58 488.11,386.42 546.65,358.49">
            <param key="origId" value="54800530"/>
        </lane>
        <param key="origFrom" value="5312909842"/>
        <param key="origTo" value="104945598"/>
    </edge>
    <edge id="Forbes-WilliamPenn-Smithfield" from="cluster_104945598_8484284971_8484443912_8484445225" to="cluster_105012724_5312909842" name="Forbes Avenue" priority="10" type="highway.tertiary" shape="552.41,357.51 489.01,387.76 484.58,391.77">
        <lane id="Forbes-WilliamPenn-Smithfield_0" index="0" disallow="tram rail_urban rail rail_electric rail_fast ship cable_car subway" speed="22.22" length="81.09" shape="549.40,364.26 491.71,391.79 487.80,395.33">
            <param key="origId" value="54800530"/>
        </lane>
        <lane id="Forbes-WilliamPenn-Smithfield_1" index="1" disallow="tram rail_urban rail rail_electric rail_fast ship cable_car subway" speed="22.22" length="81.09" shape="548.02,361.38 489.91,389.10 485.65,392.96">
            <param key="origId" value="54800530"/>
        </lane>
        <param key="origFrom" value="104945598"/>
        <param key="origTo" value="5312909842"/>
    </edge>
    <edge id="Grant-Fifth-Forbes" from="cluster_105096416_4599846711_8484284981_8484443895_8484443896_8484443903_8484443904_8484443905" to="cluster_105012740_4599846712_8484284976_8484284977_8484284978_8484443907_8484443908_8484443909" priority="-1">
        <lane id="Grant-Fifth-Forbes_0" index="0" speed="13.89" length="87.90" shape="660.25,387.92 633.41,334.00"/>
        <lane id="Grant-Fifth-Forbes_1" index="1" speed="13.89" length="87.90" shape="663.12,386.49 636.28,332.57"/>
        <lane id="Grant-Fifth-Forbes_2" index="2" speed="13.89" length="87.90" shape="665.98,385.07 639.14,331.14"/>
    </edge>
    <edge id="Grant-Fifth-Oliver" from="cluster_105096416_4599846711_8484284981_8484443895_8484443896_8484443903_8484443904_8484443905" to="cluster_105938052_4599846710_8484443884_8484443885_8484443891_8484443893_8484443894" priority="-1">
        <lane id="Grant-Fifth-Oliver_0" index="0" speed="13.89" length="88.77" shape="683.65,407.14 712.68,470.26"/>
        <lane id="Grant-Fifth-Oliver_1" index="1" speed="13.89" length="88.77" shape="680.74,408.48 709.78,471.60"/>
    </edge>
    <edge id="Grant-Forbes-Fifth" from="cluster_105012740_4599846712_8484284976_8484284977_8484284978_8484443907_8484443908_8484443909" to="cluster_105096416_4599846711_8484284981_8484443895_8484443896_8484443903_8484443904_8484443905" priority="-1">
        <lane id="Grant-Forbes-Fifth_0" index="0" speed="13.89" length="87.90" shape="647.74,326.87 674.58,380.79"/>
        <lane id="Grant-Forbes-Fifth_1" index="1" speed="13.89" length="87.90" shape="644.87,328.29 671.71,382.21"/>
        <lane id="Grant-Forbes-Fifth_2" index="2" speed="13.89" length="87.90" shape="642.01,329.72 668.85,383.64"/>
    </edge>
    <edge id="Grant-Forbes-Fourth" from="cluster_105012740_4599846712_8484284976_8484284977_8484284978_8484443907_8484443908_8484443909" to="cluster_104650336_4599846713_5308524119_5308525596_5308525747_8484067051_8484284962_8484284963" priority="-1">
        <lane id="Grant-Forbes-Fourth_0" index="0" speed="13.89" length="99.16" shape="625.57,311.19 588.94,238.57"/>
        <lane id="Grant-Forbes-Fourth_1" index="1" speed="13.89" length="99.16" shape="628.43,309.75 591.80,237.13"/>
    </edge>
    <edge id="Grant-Fourth-Forbes" from="J8" to="cluster_104650336_4599846713_5308524119_5308525596_5308525747_8484067051_8484284962_8484284963" priority="-1">
        <lane id="Grant-Fourth-Forbes_0" index="0" speed="13.89" length="986.81" shape="598.60,-755.00 599.52,229.25"/>
    </edge>
    <edge id="Grant-Fourth-Forbes-2" from="cluster_104650336_4599846713_5308524119_5308525596_5308525747_8484067051_8484284962_8484284963" to="cluster_105012740_4599846712_8484284976_8484284977_8484284978_8484443907_8484443908_8484443909" priority="-1">
        <lane id="Grant-Fourth-Forbes-2_0" index="0" speed="13.89" length="99.16" shape="600.37,232.81 637.00,305.43"/>
        <lane id="Grant-Fourth-Forbes-2_1" index="1" speed="13.89" length="99.16" shape="597.52,234.25 634.14,306.87"/>
        <lane id="Grant-Fourth-Forbes-2_2" index="2" speed="13.89" length="99.16" shape="594.66,235.69 631.29,308.31"/>
    </edge>
    <edge id="Grant-Oliver-Fifth" from="cluster_105938052_4599846710_8484443884_8484443885_8484443891_8484443893_8484443894" to="cluster_105096416_4599846711_8484284981_8484443895_8484443896_8484443903_8484443904_8484443905" priority="-1">
        <lane id="Grant-Oliver-Fifth_0" index="0" speed="13.89" length="88.77" shape="701.06,475.61 672.02,412.49"/>
        <lane id="Grant-Oliver-Fifth_1" index="1" speed="13.89" length="88.77" shape="703.96,474.27 674.93,411.16"/>
        <lane id="Grant-Oliver-Fifth_2" index="2" speed="13.89" length="88.77" shape="706.87,472.93 677.84,409.82"/>
    </edge>
    <edge id="Grant-Oliver-Sixth" from="cluster_105938052_4599846710_8484443884_8484443885_8484443891_8484443893_8484443894" to="cluster_104572642_4599846707_8484284983_8484443873_8484443874_8484443879_8484443880_8484443881" priority="-1">
        <lane id="Grant-Oliver-Sixth_0" index="0" speed="13.89" length="81.52" shape="720.19,478.31 749.00,533.30"/>
        <lane id="Grant-Oliver-Sixth_1" index="1" speed="13.89" length="81.52" shape="717.36,479.80 746.17,534.78"/>
        <lane id="Grant-Oliver-Sixth_2" index="2" speed="13.89" length="81.52" shape="714.53,481.28 743.33,536.27"/>
    </edge>
    <edge id="Grant-Seventh-Sixth" from="J1" to="4599846706" priority="-1">
        <lane id="Grant-Seventh-Sixth_0" index="0" speed="13.89" length="983.96" shape="780.40,1628.00 780.88,646.47"/>
    </edge>
    <edge id="Grant-Seventh-Sixth-2" from="4599846706" to="cluster_104572642_4599846707_8484284983_8484443873_8484443874_8484443879_8484443880_8484443881" priority="-1">
        <lane id="Grant-Seventh-Sixth-2_0" index="0" speed="13.89" length="105.89" shape="780.16,642.96 746.57,565.28"/>
        <lane id="Grant-Seventh-Sixth-2_1" index="1" speed="13.89" length="105.89" shape="783.09,641.69 749.51,564.01"/>
        <lane id="Grant-Seventh-Sixth-2_2" index="2" speed="13.89" length="105.89" shape="786.03,640.42 752.45,562.74"/>
    </edge>
    <edge id="Grant-Sixth-Oliver" from="cluster_104572642_4599846707_8484284983_8484443873_8484443874_8484443879_8484443880_8484443881" to="cluster_105938052_4599846710_8484443884_8484443885_8484443891_8484443893_8484443894" priority="-1">
        <lane id="Grant-Sixth-Oliver_0" index="0" speed="13.89" length="81.52" shape="737.66,539.24 708.86,484.25"/>
        <lane id="Grant-Sixth-Oliver_1" index="1" speed="13.89" length="81.52" shape="740.50,537.75 711.69,482.77"/>
    </edge>
    <edge id="Grant-Sixth-Seventh" from="cluster_104572642_4599846707_8484284983_8484443873_8484443874_8484443879_8484443880_8484443881" to="4599846706" priority="-1">
        <lane id="Grant-Sixth-Seventh_0" index="0" speed="13.89" length="105.89" shape="758.32,560.20 791.90,637.88"/>
        <lane id="Grant-Sixth-Seventh_1" index="1" speed="13.89" length="105.89" shape="755.38,561.47 788.97,639.15"/>
    </edge>
    <edge id="Oliver-Smithfield-WilliamPenn" from="J12" to="cluster_105938047_5317312319_8484452991_8484461657_8484461658" priority="-1">
        <lane id="Oliver-Smithfield-WilliamPenn_0" index="0" speed="13.89" length="1000.46" shape="-445.00,548.40 552.12,549.01"/>
    </edge>
    <edge id="Oliver-Smithfield-WilliamPenn-2" from="cluster_105938047_5317312319_8484452991_8484461657_8484461658" to="cluster_105012342_8484443890_8484452928_8484452936_8484452937" name="Oliver Avenue" priority="3" type="highway.residential" shape="561.03,547.42 630.34,514.38">
        <lane id="Oliver-Smithfield-WilliamPenn-2_0" index="0" disallow="tram rail_urban rail rail_electric rail_fast ship cable_car subway" speed="11.18" length="88.89" shape="560.34,545.98 629.39,513.06">
            <param key="origId" value="1073294205"/>
        </lane>
        <param key="origFrom" value="5317312319"/>
        <param key="origTo" value="8484452936"/>
    </edge>
    <edge id="Oliver-WilliamPenn-Grant" from="cluster_105012342_8484443890_8484452928_8484452936_8484452937" to="cluster_105938052_4599846710_8484443884_8484443885_8484443891_8484443893_8484443894" name="Oliver Avenue" priority="3" type="highway.residential" spreadType="center" shape="641.00,509.39 696.15,484.03 703.15,480.81">
        <lane id="Oliver-WilliamPenn-Grant_0" index="0" disallow="tram rail_urban rail rail_electric rail_fast ship cable_car subway" speed="11.18" length="82.80" shape="641.00,509.39 696.15,484.03 698.31,483.04">
            <param key="origId" value="1065071639"/>
        </lane>
        <param key="origFrom" value="8484443890"/>
        <param key="origTo" value="8484443891"/>
    </edge>
    <edge id="Oliver-WilliamPenn-Smithfield" from="cluster_105012342_8484443890_8484452928_8484452936_8484452937" to="cluster_105938047_5317312319_8484452991_8484461657_8484461658" name="Oliver Avenue" priority="3" type="highway.residential" shape="630.34,514.38 561.03,547.42">
        <lane id="Oliver-WilliamPenn-Smithfield_0" index="0" disallow="tram rail_urban rail rail_electric rail_fast ship cable_car subway" speed="11.18" length="88.89" shape="630.77,515.95 561.72,548.86">
            <param key="origId" value="1073294205"/>
        </lane>
        <param key="origFrom" value="8484452936"/>
        <param key="origTo" value="5317312319"/>
    </edge>
    <edge id="Ross-Fifth-Forbes" from="cluster_105096435_8484284984_8484284985_8484285004_8484285005" to="cluster_105012751_8484067060_8484067061_8484284979_8484284980" name="Ross Street" priority="11" type="highway.secondary" shape="771.95,344.59 740.29,274.02">
        <lane id="Ross-Fifth-Forbes_0" index="0" disallow="tram rail_urban rail rail_electric rail_fast ship cable_car subway" speed="27.78" length="92.97" shape="763.91,346.22 736.05,284.12">
            <param key="origId" value="323046623"/>
        </lane>
        <lane id="Ross-Fifth-Forbes_1" index="1" disallow="tram rail_urban rail rail_electric rail_fast ship cable_car subway" speed="27.78" length="92.97" shape="766.83,344.91 738.97,282.81">
            <param key="origId" value="323046623"/>
        </lane>
        <lane id="Ross-Fifth-Forbes_2" index="2" disallow="tram rail_urban rail rail_electric rail_fast ship cable_car subway" speed="27.78" length="92.97" shape="769.75,343.60 741.89,281.50">
            <param key="origId" value="323046623"/>
        </lane>
        <param key="origFrom" value="8484284985"/>
        <param key="origTo" value="8484284980"/>
    </edge>
    <edge id="Ross-Fifth-Sixth" from="cluster_105096435_8484284984_8484284985_8484285004_8484285005" to="cluster_104472649_1362263119_684800917_8484285016_8484318434_8486322131_8486322133" name="Ross Street" priority="11" type="highway.secondary" shape="779.28,362.01 816.05,453.95 834.88,500.61">
        <lane id="Ross-Fifth-Sixth_0" index="0" disallow="tram rail_urban rail rail_electric rail_fast ship cable_car subway" speed="27.78" length="177.66" shape="788.15,362.64 823.47,450.97 841.35,495.27">
            <param key="origId" value="153230494"/>
        </lane>
        <lane id="Ross-Fifth-Sixth_1" index="1" disallow="tram rail_urban rail rail_electric rail_fast ship cable_car subway" speed="27.78" length="177.66" shape="785.18,363.83 820.50,452.16 838.38,496.47">
            <param key="origId" value="153230494"/>
        </lane>
        <lane id="Ross-Fifth-Sixth_2" index="2" disallow="tram rail_urban rail rail_electric rail_fast ship cable_car subway" speed="27.78" length="177.66" shape="782.20,365.01 817.53,453.35 835.42,497.67">
            <param key="origId" value="153230494"/>
        </lane>
        <param key="origFrom" value="8484285004"/>
    </edge>
    <edge id="Ross-Forbes-Fifth" from="cluster_105012751_8484067060_8484067061_8484284979_8484284980" to="cluster_105096435_8484284984_8484284985_8484285004_8484285005" name="Ross Street" priority="11" type="highway.secondary" shape="740.29,274.02 771.95,344.59">
        <lane id="Ross-Forbes-Fifth_0" index="0" disallow="tram rail_urban rail rail_electric rail_fast ship cable_car subway" speed="27.78" length="92.97" shape="750.65,277.57 778.51,339.67">
            <param key="origId" value="323046623"/>
        </lane>
        <lane id="Ross-Forbes-Fifth_1" index="1" disallow="tram rail_urban rail rail_electric rail_fast ship cable_car subway" speed="27.78" length="92.97" shape="747.73,278.88 775.59,340.98">
            <param key="origId" value="323046623"/>
        </lane>
        <lane id="Ross-Forbes-Fifth_2" index="2" disallow="tram rail_urban rail rail_electric rail_fast ship cable_car subway" speed="27.78" length="92.97" shape="744.81,280.19 772.67,342.29">
            <param key="origId" value="323046623"/>
        </lane>
        <param key="origFrom" value="8484284980"/>
        <param key="origTo" value="8484284985"/>
    </edge>