<?xml version="1.0" encoding="UTF-8"?>
<routes xmlns:xsi="http://www.w3.org/2001/XMLSchema-instance" xsi:noNamespaceSchemaLocation="http://sumo.dlr.de/xsd/routes_file.xsd">

<vType id="noVar" speedFactor="1.0" speedDev="0.0"/>
<trip type="noVar" depart="0" id="Grant-Seventh-Sixth.0" from="Grant-Seventh-Sixth" to="Ross-Sixth-Seventh" />
<trip type="noVar" depart="0" id="WilliamPenn-Seventh-Sixth.0" from="WilliamPenn-Seventh-Sixth" to="WilliamPenn-Forbes-Fourth" />
<trip type="noVar" depart="0" id="Sixth-Smithfield-WilliamPenn.0" from="Sixth-Smithfield-WilliamPenn" to="Fifth-WilliamPenn-Smithfield" />
<trip type="noVar" depart="0" id="Grant-Fifth-Oliver.0" from="Grant-Fifth-Oliver" to="Grant-Sixth-Seventh" />
<trip type="noVar" depart="0" id="Oliver-Smithfield-WilliamPenn.0" from="Oliver-Smithfield-WilliamPenn" to="Grant-Sixth-Seventh" />
<trip type="noVar" depart="0" id="Fifth-Smithfield-WilliamPenn.0" from="Fifth-Smithfield-WilliamPenn" to="Fifth-Ross-RHS" />
<trip type="noVar" depart="0" id="Grant-Fourth-Forbes.0" from="Grant-Fourth-Forbes" to="Grant-Sixth-Seventh" />
<trip type="noVar" depart="0" id="Forbes-Smithfield-WilliamPenn.0" from="Forbes-Smithfield-WilliamPenn" to="WilliamPenn-Forbes-Fourth" />
<trip type="noVar" depart="0" id="Ross-Seventh-Sixth.0" from="Ross-Seventh-Sixth" to="Sixth-Ross-RHS" />
<trip type="noVar" depart="0" id="Sixth-RHS-Ross.0" from="Sixth-RHS-Ross" to="Grant-Sixth-Seventh" />
<trip type="noVar" depart="0" id="Fifth-RHS-Ross.0" from="Fifth-RHS-Ross" to="Fifth-WilliamPenn-Smithfield" />
<trip type="noVar" depart="0" id="Forbes-RHS-Ross.0" from="Forbes-RHS-Ross" to="Forbes-WilliamPenn-Smithfield" />
<trip type="noVar" depart="0" id="Ross-Fourth-Forbes.0" from="Ross-Fourth-Forbes" to="Forbes-Ross-RHS" />
<trip type="noVar" depart="6" id="Grant-Seventh-Sixth.1" from="Grant-Seventh-Sixth" to="Grant-Sixth-Seventh" />
<trip type="noVar" depart="7" id="Grant-Fourth-Forbes.1" from="Grant-Fourth-Forbes" to="Fifth-WilliamPenn-Smithfield" />
<trip type="noVar" depart="7" id="Ross-Seventh-Sixth.1" from="Ross-Seventh-Sixth" to="Sixth-Ross-RHS" />
<trip type="noVar" depart="7" id="Forbes-RHS-Ross.1" from="Forbes-RHS-Ross" to="Ross-Forbes-Fourth" />
<trip type="noVar" depart="7" id="Ross-Fourth-Forbes.1" from="Ross-Fourth-Forbes" to="Forbes-Ross-RHS" />
<trip type="noVar" depart="9" id="Sixth-RHS-Ross.1" from="Sixth-RHS-Ross" to="WilliamPenn-Forbes-Fourth" />
<trip type="noVar" depart="10" id="Sixth-Smithfield-WilliamPenn.1" from="Sixth-Smithfield-WilliamPenn" to="Sixth-Ross-RHS" />
<trip type="noVar" depart="11" id="Fifth-RHS-Ross.1" from="Fifth-RHS-Ross" to="Grant-Forbes-Fourth" />
<trip type="noVar" depart="12" id="Oliver-Smithfield-WilliamPenn.1" from="Oliver-Smithfield-WilliamPenn" to="Grant-Sixth-Seventh" />
<trip type="noVar" depart="13" id="Grant-Seventh-Sixth.2" from="Grant-Seventh-Sixth" to="Fifth-Ross-RHS" />
<trip type="noVar" depart="13" id="WilliamPenn-Seventh-Sixth.1" from="WilliamPenn-Seventh-Sixth" to="Oliver-WilliamPenn-Smithfield" />
<trip type="noVar" depart="14" id="Ross-Seventh-Sixth.2" from="Ross-Seventh-Sixth" to="Ross-Forbes-Fourth" />
<trip type="noVar" depart="15" id="Grant-Fourth-Forbes.2" from="Grant-Fourth-Forbes" to="Grant-Sixth-Seventh" />
<trip type="noVar" depart="15" id="Forbes-RHS-Ross.2" from="Forbes-RHS-Ross" to="WilliamPenn-Forbes-Fourth" />
<trip type="noVar" depart="15" id="Ross-Fourth-Forbes.2" from="Ross-Fourth-Forbes" to="Forbes-Ross-RHS" />
<trip type="noVar" depart="18" id="Sixth-RHS-Ross.2" from="Sixth-RHS-Ross" to="Grant-Sixth-Seventh" />
<trip type="noVar" depart="20" id="Grant-Seventh-Sixth.3" from="Grant-Seventh-Sixth" to="Fifth-Ross-RHS" />
<trip type="noVar" depart="20" id="Sixth-Smithfield-WilliamPenn.2" from="Sixth-Smithfield-WilliamPenn" to="Grant-Sixth-Seventh" />
<trip type="noVar" depart="21" id="Ross-Seventh-Sixth.3" from="Ross-Seventh-Sixth" to="Grant-Sixth-Seventh" />
<trip type="noVar" depart="22" id="Grant-Fourth-Forbes.3" from="Grant-Fourth-Forbes" to="Ross-Sixth-Seventh" />
<trip type="noVar" depart="22" id="Fifth-RHS-Ross.2" from="Fifth-RHS-Ross" to="Fifth-WilliamPenn-Smithfield" />
<trip type="noVar" depart="22" id="Forbes-RHS-Ross.3" from="Forbes-RHS-Ross" to="Grant-Forbes-Fourth" />
<trip type="noVar" depart="22" id="Ross-Fourth-Forbes.3" from="Ross-Fourth-Forbes" to="Ross-Sixth-Seventh" />
<trip type="noVar" depart="24" id="Oliver-Smithfield-WilliamPenn.2" from="Oliver-Smithfield-WilliamPenn" to="Grant-Sixth-Seventh" />
<trip type="noVar" depart="26" id="WilliamPenn-Seventh-Sixth.2" from="WilliamPenn-Seventh-Sixth" to="WilliamPenn-Forbes-Fourth" />
<trip type="noVar" depart="27" id="Grant-Seventh-Sixth.4" from="Grant-Seventh-Sixth" to="WilliamPenn-Forbes-Fourth" />
<trip type="noVar" depart="27" id="Sixth-RHS-Ross.3" from="Sixth-RHS-Ross" to="Grant-Sixth-Seventh" />
<trip type="noVar" depart="28" id="Ross-Seventh-Sixth.4" from="Ross-Seventh-Sixth" to="Fifth-Ross-RHS" />
<trip type="noVar" depart="30" id="Grant-Fourth-Forbes.4" from="Grant-Fourth-Forbes" to="Sixth-Ross-RHS" />
<trip type="noVar" depart="30" id="Forbes-RHS-Ross.4" from="Forbes-RHS-Ross" to="Grant-Forbes-Fourth" />
<trip type="noVar" depart="30" id="Ross-Fourth-Forbes.4" from="Ross-Fourth-Forbes" to="Ross-Sixth-Seventh" />
<trip type="noVar" depart="31" id="Sixth-Smithfield-WilliamPenn.3" from="Sixth-Smithfield-WilliamPenn" to="Oliver-WilliamPenn-Smithfield" />
<trip type="noVar" depart="33" id="Fifth-RHS-Ross.3" from="Fifth-RHS-Ross" to="Fifth-WilliamPenn-Smithfield" />
<trip type="noVar" depart="34" id="Grant-Seventh-Sixth.5" from="Grant-Seventh-Sixth" to="Grant-Forbes-Fourth" />
<trip type="noVar" depart="35" id="Ross-Seventh-Sixth.5" from="Ross-Seventh-Sixth" to="Grant-Sixth-Seventh" />
<trip type="noVar" depart="36" id="Oliver-Smithfield-WilliamPenn.3" from="Oliver-Smithfield-WilliamPenn" to="Grant-Sixth-Seventh" />
<trip type="noVar" depart="36" id="Sixth-RHS-Ross.4" from="Sixth-RHS-Ross" to="Ross-Sixth-Seventh" />
<trip type="noVar" depart="37" id="Grant-Fourth-Forbes.5" from="Grant-Fourth-Forbes" to="Grant-Sixth-Seventh" />
<trip type="noVar" depart="37" id="Ross-Fourth-Forbes.5" from="Ross-Fourth-Forbes" to="Ross-Sixth-Seventh" />
<trip type="noVar" depart="38" id="Forbes-RHS-Ross.5" from="Forbes-RHS-Ross" to="WilliamPenn-Forbes-Fourth" />
<trip type="noVar" depart="39" id="WilliamPenn-Seventh-Sixth.3" from="WilliamPenn-Seventh-Sixth" to="Sixth-WilliamPenn-Smithfield" />
<trip type="noVar" depart="40" id="Grant-Seventh-Sixth.6" from="Grant-Seventh-Sixth" to="Forbes-WilliamPenn-Smithfield" />
<trip type="noVar" depart="41" id="Sixth-Smithfield-WilliamPenn.4" from="Sixth-Smithfield-WilliamPenn" to="Ross-Sixth-Seventh" />
<trip type="noVar" depart="42" id="Ross-Seventh-Sixth.6" from="Ross-Seventh-Sixth" to="Ross-Forbes-Fourth" />
<trip type="noVar" depart="44" id="Fifth-RHS-Ross.4" from="Fifth-RHS-Ross" to="Grant-Forbes-Fourth" />
<trip type="noVar" depart="45" id="Fifth-Smithfield-WilliamPenn.1" from="Fifth-Smithfield-WilliamPenn" to="Sixth-WilliamPenn-Smithfield" />
<trip type="noVar" depart="45" id="Grant-Fourth-Forbes.6" from="Grant-Fourth-Forbes" to="Grant-Sixth-Seventh" />
<trip type="noVar" depart="45" id="Sixth-RHS-Ross.5" from="Sixth-RHS-Ross" to="Ross-Sixth-Seventh" />
<trip type="noVar" depart="45" id="Forbes-RHS-Ross.6" from="Forbes-RHS-Ross" to="Ross-Forbes-Fourth" />
<trip type="noVar" depart="45" id="Ross-Fourth-Forbes.6" from="Ross-Fourth-Forbes" to="Forbes-Ross-RHS" />
<trip type="noVar" depart="47" id="Grant-Seventh-Sixth.7" from="Grant-Seventh-Sixth" to="Grant-Forbes-Fourth" />
<trip type="noVar" depart="48" id="Oliver-Smithfield-WilliamPenn.4" from="Oliver-Smithfield-WilliamPenn" to="Grant-Sixth-Seventh" />
<trip type="noVar" depart="49" id="Ross-Seventh-Sixth.7" from="Ross-Seventh-Sixth" to="Sixth-Ross-RHS" />
<trip type="noVar" depart="52" id="WilliamPenn-Seventh-Sixth.4" from="WilliamPenn-Seventh-Sixth" to="Grant-Sixth-Seventh" />
<trip type="noVar" depart="52" id="Sixth-Smithfield-WilliamPenn.5" from="Sixth-Smithfield-WilliamPenn" to="Sixth-Ross-RHS" />
<trip type="noVar" depart="52" id="Grant-Fourth-Forbes.7" from="Grant-Fourth-Forbes" to="Forbes-Ross-RHS" />
<trip type="noVar" depart="52" id="Ross-Fourth-Forbes.7" from="Ross-Fourth-Forbes" to="Ross-Sixth-Seventh" />
<trip type="noVar" depart="53" id="Forbes-RHS-Ross.7" from="Forbes-RHS-Ross" to="Grant-Forbes-Fourth" />
<trip type="noVar" depart="54" id="Grant-Seventh-Sixth.8" from="Grant-Seventh-Sixth" to="Grant-Forbes-Fourth" />
<trip type="noVar" depart="54" id="Sixth-RHS-Ross.6" from="Sixth-RHS-Ross" to="Grant-Sixth-Seventh" />
<trip type="noVar" depart="55" id="Fifth-RHS-Ross.5" from="Fifth-RHS-Ross" to="Fifth-WilliamPenn-Smithfield" />
<trip type="noVar" depart="56" id="Ross-Seventh-Sixth.8" from="Ross-Seventh-Sixth" to="Ross-Forbes-Fourth" />
<trip type="noVar" depart="60" id="Oliver-Smithfield-WilliamPenn.5" from="Oliver-Smithfield-WilliamPenn" to="Grant-Sixth-Seventh" />
<trip type="noVar" depart="60" id="Grant-Fourth-Forbes.8" from="Grant-Fourth-Forbes" to="Grant-Sixth-Seventh" />
<trip type="noVar" depart="60" id="Ross-Fourth-Forbes.8" from="Ross-Fourth-Forbes" to="Grant-Forbes-Fourth" />
<trip type="noVar" depart="61" id="Grant-Seventh-Sixth.9" from="Grant-Seventh-Sixth" to="Grant-Forbes-Fourth" />
<trip type="noVar" depart="61" id="Forbes-RHS-Ross.8" from="Forbes-RHS-Ross" to="WilliamPenn-Forbes-Fourth" />
<trip type="noVar" depart="62" id="Sixth-Smithfield-WilliamPenn.6" from="Sixth-Smithfield-WilliamPenn" to="Sixth-Ross-RHS" />
<trip type="noVar" depart="63" id="Ross-Seventh-Sixth.9" from="Ross-Seventh-Sixth" to="Sixth-WilliamPenn-Smithfield" />
<trip type="noVar" depart="63" id="Sixth-RHS-Ross.7" from="Sixth-RHS-Ross" to="Ross-Sixth-Seventh" />
<trip type="noVar" depart="65" id="WilliamPenn-Seventh-Sixth.5" from="WilliamPenn-Seventh-Sixth" to="Grant-Forbes-Fourth" />
<trip type="noVar" depart="66" id="Fifth-RHS-Ross.6" from="Fifth-RHS-Ross" to="Grant-Forbes-Fourth" />
<trip type="noVar" depart="68" id="Grant-Seventh-Sixth.10" from="Grant-Seventh-Sixth" to="Sixth-Ross-RHS" />
<trip type="noVar" depart="68" id="Grant-Fourth-Forbes.9" from="Grant-Fourth-Forbes" to="Forbes-WilliamPenn-Smithfield" />
<trip type="noVar" depart="68" id="Forbes-RHS-Ross.9" from="Forbes-RHS-Ross" to="WilliamPenn-Forbes-Fourth" />
<trip type="noVar" depart="68" id="Ross-Fourth-Forbes.9" from="Ross-Fourth-Forbes" to="Forbes-Ross-RHS" />
<trip type="noVar" depart="70" id="Ross-Seventh-Sixth.10" from="Ross-Seventh-Sixth" to="Sixth-Ross-RHS" />
<trip type="noVar" depart="72" id="Oliver-Smithfield-WilliamPenn.6" from="Oliver-Smithfield-WilliamPenn" to="Grant-Sixth-Seventh" />
<trip type="noVar" depart="72" id="Sixth-RHS-Ross.8" from="Sixth-RHS-Ross" to="WilliamPenn-Forbes-Fourth" />
<trip type="noVar" depart="73" id="Sixth-Smithfield-WilliamPenn.7" from="Sixth-Smithfield-WilliamPenn" to="Sixth-Ross-RHS" />
<trip type="noVar" depart="75" id="Grant-Seventh-Sixth.11" from="Grant-Seventh-Sixth" to="Grant-Forbes-Fourth" />
<trip type="noVar" depart="75" id="Grant-Fourth-Forbes.10" from="Grant-Fourth-Forbes" to="Forbes-WilliamPenn-Smithfield" />
<trip type="noVar" depart="75" id="Ross-Fourth-Forbes.10" from="Ross-Fourth-Forbes" to="Forbes-Ross-RHS" />
<trip type="noVar" depart="76" id="Forbes-RHS-Ross.10" from="Forbes-RHS-Ross" to="Ross-Forbes-Fourth" />
<trip type="noVar" depart="77" id="Ross-Seventh-Sixth.11" from="Ross-Seventh-Sixth" to="Sixth-Ross-RHS" />
<trip type="noVar" depart="77" id="Fifth-RHS-Ross.7" from="Fifth-RHS-Ross" to="Fifth-WilliamPenn-Smithfield" />
<trip type="noVar" depart="78" id="WilliamPenn-Seventh-Sixth.6" from="WilliamPenn-Seventh-Sixth" to="Fifth-WilliamPenn-Smithfield" />
<trip type="noVar" depart="81" id="Grant-Seventh-Sixth.12" from="Grant-Seventh-Sixth" to="Grant-Forbes-Fourth" />
<trip type="noVar" depart="81" id="Sixth-RHS-Ross.9" from="Sixth-RHS-Ross" to="Ross-Sixth-Seventh" />
<trip type="noVar" depart="83" id="Sixth-Smithfield-WilliamPenn.8" from="Sixth-Smithfield-WilliamPenn" to="Sixth-Ross-RHS" />
<trip type="noVar" depart="83" id="Grant-Fourth-Forbes.11" from="Grant-Fourth-Forbes" to="Grant-Sixth-Seventh" />
<trip type="noVar" depart="83" id="Forbes-RHS-Ross.11" from="Forbes-RHS-Ross" to="Ross-Sixth-Seventh" />
<trip type="noVar" depart="83" id="Ross-Fourth-Forbes.11" from="Ross-Fourth-Forbes" to="Forbes-Ross-RHS" />
<trip type="noVar" depart="85" id="Oliver-Smithfield-WilliamPenn.7" from="Oliver-Smithfield-WilliamPenn" to="Sixth-Ross-RHS" />
<trip type="noVar" depart="85" id="Ross-Seventh-Sixth.12" from="Ross-Seventh-Sixth" to="Sixth-Ross-RHS" />
<trip type="noVar" depart="88" id="Grant-Seventh-Sixth.13" from="Grant-Seventh-Sixth" to="Grant-Forbes-Fourth" />
<trip type="noVar" depart="88" id="Fifth-RHS-Ross.8" from="Fifth-RHS-Ross" to="Fifth-WilliamPenn-Smithfield" />
<trip type="noVar" depart="90" id="Fifth-Smithfield-WilliamPenn.2" from="Fifth-Smithfield-WilliamPenn" to="Grant-Sixth-Seventh" />
<trip type="noVar" depart="90" id="Grant-Fourth-Forbes.12" from="Grant-Fourth-Forbes" to="Grant-Sixth-Seventh" />
<trip type="noVar" depart="90" id="Sixth-RHS-Ross.10" from="Sixth-RHS-Ross" to="Sixth-WilliamPenn-Smithfield" />
<trip type="noVar" depart="90" id="Ross-Fourth-Forbes.12" from="Ross-Fourth-Forbes" to="Forbes-Ross-RHS" />
<trip type="noVar" depart="91" id="WilliamPenn-Seventh-Sixth.7" from="WilliamPenn-Seventh-Sixth" to="Sixth-WilliamPenn-Smithfield" />
<trip type="noVar" depart="91" id="Forbes-RHS-Ross.12" from="Forbes-RHS-Ross" to="Ross-Forbes-Fourth" />
<trip type="noVar" depart="92" id="Ross-Seventh-Sixth.13" from="Ross-Seventh-Sixth" to="Sixth-Ross-RHS" />
<trip type="noVar" depart="94" id="Sixth-Smithfield-WilliamPenn.9" from="Sixth-Smithfield-WilliamPenn" to="Sixth-Ross-RHS" />
<trip type="noVar" depart="95" id="Grant-Seventh-Sixth.14" from="Grant-Seventh-Sixth" to="Grant-Forbes-Fourth" />
<trip type="noVar" depart="97" id="Oliver-Smithfield-WilliamPenn.8" from="Oliver-Smithfield-WilliamPenn" to="Forbes-WilliamPenn-Smithfield" />
<trip type="noVar" depart="98" id="Grant-Fourth-Forbes.13" from="Grant-Fourth-Forbes" to="Grant-Sixth-Seventh" />
<trip type="noVar" depart="98" id="Ross-Fourth-Forbes.13" from="Ross-Fourth-Forbes" to="Ross-Sixth-Seventh" />
<trip type="noVar" depart="99" id="Ross-Seventh-Sixth.14" from="Ross-Seventh-Sixth" to="Fifth-WilliamPenn-Smithfield" />
<trip type="noVar" depart="99" id="Sixth-RHS-Ross.11" from="Sixth-RHS-Ross" to="Grant-Sixth-Seventh" />
<trip type="noVar" depart="99" id="Forbes-RHS-Ross.13" from="Forbes-RHS-Ross" to="Grant-Forbes-Fourth" />
<trip type="noVar" depart="100" id="Forbes-Smithfield-WilliamPenn.1" from="Forbes-Smithfield-WilliamPenn" to="WilliamPenn-Forbes-Fourth" />
<trip type="noVar" depart="100" id="Fifth-RHS-Ross.9" from="Fifth-RHS-Ross" to="Fifth-WilliamPenn-Smithfield" />
<trip type="noVar" depart="102" id="Grant-Seventh-Sixth.15" from="Grant-Seventh-Sixth" to="Forbes-WilliamPenn-Smithfield" />
<trip type="noVar" depart="104" id="WilliamPenn-Seventh-Sixth.8" from="WilliamPenn-Seventh-Sixth" to="Sixth-WilliamPenn-Smithfield" />
<trip type="noVar" depart="104" id="Sixth-Smithfield-WilliamPenn.10" from="Sixth-Smithfield-WilliamPenn" to="Sixth-Ross-RHS" />
<trip type="noVar" depart="105" id="Grant-Fourth-Forbes.14" from="Grant-Fourth-Forbes" to="Fifth-Ross-RHS" />
<trip type="noVar" depart="105" id="Ross-Fourth-Forbes.14" from="Ross-Fourth-Forbes" to="Sixth-Ross-RHS" />
<trip type="noVar" depart="106" id="Ross-Seventh-Sixth.15" from="Ross-Seventh-Sixth" to="Sixth-Ross-RHS" />
<trip type="noVar" depart="106" id="Forbes-RHS-Ross.14" from="Forbes-RHS-Ross" to="Ross-Forbes-Fourth" />
<trip type="noVar" depart="108" id="Sixth-RHS-Ross.12" from="Sixth-RHS-Ross" to="Grant-Sixth-Seventh" />
<trip type="noVar" depart="109" id="Grant-Seventh-Sixth.16" from="Grant-Seventh-Sixth" to="Forbes-WilliamPenn-Smithfield" />
<trip type="noVar" depart="109" id="Oliver-Smithfield-WilliamPenn.9" from="Oliver-Smithfield-WilliamPenn" to="Grant-Sixth-Seventh" />
<trip type="noVar" depart="111" id="Fifth-RHS-Ross.10" from="Fifth-RHS-Ross" to="Ross-Sixth-Seventh" />
<trip type="noVar" depart="112" id="Grant-Fifth-Oliver.1" from="Grant-Fifth-Oliver" to="Grant-Sixth-Seventh" />
<trip type="noVar" depart="113" id="Grant-Fourth-Forbes.15" from="Grant-Fourth-Forbes" to="Forbes-Ross-RHS" />
<trip type="noVar" depart="113" id="Ross-Seventh-Sixth.16" from="Ross-Seventh-Sixth" to="Grant-Forbes-Fourth" />
<trip type="noVar" depart="113" id="Ross-Fourth-Forbes.15" from="Ross-Fourth-Forbes" to="Ross-Sixth-Seventh" />
<trip type="noVar" depart="114" id="Forbes-RHS-Ross.15" from="Forbes-RHS-Ross" to="Forbes-WilliamPenn-Smithfield" />
<trip type="noVar" depart="115" id="Grant-Seventh-Sixth.17" from="Grant-Seventh-Sixth" to="Grant-Forbes-Fourth" />
<trip type="noVar" depart="115" id="Sixth-Smithfield-WilliamPenn.11" from="Sixth-Smithfield-WilliamPenn" to="WilliamPenn-Forbes-Fourth" />
<trip type="noVar" depart="117" id="WilliamPenn-Seventh-Sixth.9" from="WilliamPenn-Seventh-Sixth" to="Grant-Sixth-Seventh" />
<trip type="noVar" depart="117" id="Sixth-RHS-Ross.13" from="Sixth-RHS-Ross" to="Grant-Sixth-Seventh" />
<trip type="noVar" depart="120" id="Ross-Seventh-Sixth.17" from="Ross-Seventh-Sixth" to="Ross-Forbes-Fourth" />
<trip type="noVar" depart="121" id="Oliver-Smithfield-WilliamPenn.10" from="Oliver-Smithfield-WilliamPenn" to="WilliamPenn-Forbes-Fourth" />
<trip type="noVar" depart="121" id="Grant-Fourth-Forbes.16" from="Grant-Fourth-Forbes" to="Grant-Sixth-Seventh" />
<trip type="noVar" depart="121" id="Ross-Fourth-Forbes.16" from="Ross-Fourth-Forbes" to="Ross-Sixth-Seventh" />
<trip type="noVar" depart="122" id="Grant-Seventh-Sixth.18" from="Grant-Seventh-Sixth" to="Grant-Forbes-Fourth" />
<trip type="noVar" depart="122" id="Fifth-RHS-Ross.11" from="Fifth-RHS-Ross" to="Fifth-WilliamPenn-Smithfield" />
<trip type="noVar" depart="122" id="Forbes-RHS-Ross.16" from="Forbes-RHS-Ross" to="Grant-Forbes-Fourth" />
<trip type="noVar" depart="125" id="Sixth-Smithfield-WilliamPenn.12" from="Sixth-Smithfield-WilliamPenn" to="WilliamPenn-Forbes-Fourth" />
<trip type="noVar" depart="126" id="Sixth-RHS-Ross.14" from="Sixth-RHS-Ross" to="Grant-Sixth-Seventh" />
<trip type="noVar" depart="127" id="Ross-Seventh-Sixth.18" from="Ross-Seventh-Sixth" to="Sixth-Ross-RHS" />
<trip type="noVar" depart="128" id="Grant-Fourth-Forbes.17" from="Grant-Fourth-Forbes" to="WilliamPenn-Forbes-Fourth" />
<trip type="noVar" depart="128" id="Ross-Fourth-Forbes.17" from="Ross-Fourth-Forbes" to="Forbes-Ross-RHS" />
<trip type="noVar" depart="129" id="Grant-Seventh-Sixth.19" from="Grant-Seventh-Sixth" to="Ross-Sixth-Seventh" />
<trip type="noVar" depart="129" id="Forbes-RHS-Ross.17" from="Forbes-RHS-Ross" to="Grant-Forbes-Fourth" />
<trip type="noVar" depart="130" id="WilliamPenn-Seventh-Sixth.10" from="WilliamPenn-Seventh-Sixth" to="Sixth-Ross-RHS" />
<trip type="noVar" depart="133" id="Oliver-Smithfield-WilliamPenn.11" from="Oliver-Smithfield-WilliamPenn" to="WilliamPenn-Forbes-Fourth" />
<trip type="noVar" depart="133" id="Fifth-RHS-Ross.12" from="Fifth-RHS-Ross" to="Grant-Sixth-Seventh" />
<trip type="noVar" depart="134" id="Ross-Seventh-Sixth.19" from="Ross-Seventh-Sixth" to="Ross-Forbes-Fourth" />
<trip type="noVar" depart="135" id="Fifth-Smithfield-WilliamPenn.3" from="Fifth-Smithfield-WilliamPenn" to="Fifth-Ross-RHS" />
<trip type="noVar" depart="135" id="Sixth-RHS-Ross.15" from="Sixth-RHS-Ross" to="Grant-Sixth-Seventh" />
<trip type="noVar" depart="136" id="Grant-Seventh-Sixth.20" from="Grant-Seventh-Sixth" to="Fifth-WilliamPenn-Smithfield" />
<trip type="noVar" depart="136" id="Sixth-Smithfield-WilliamPenn.13" from="Sixth-Smithfield-WilliamPenn" to="Forbes-Ross-RHS" />
<trip type="noVar" depart="136" id="Grant-Fourth-Forbes.18" from="Grant-Fourth-Forbes" to="Grant-Sixth-Seventh" />
<trip type="noVar" depart="136" id="Ross-Fourth-Forbes.18" from="Ross-Fourth-Forbes" to="Forbes-Ross-RHS" />
<trip type="noVar" depart="137" id="Forbes-RHS-Ross.18" from="Forbes-RHS-Ross" to="Ross-Forbes-Fourth" />
<trip type="noVar" depart="141" id="Ross-Seventh-Sixth.20" from="Ross-Seventh-Sixth" to="Ross-Forbes-Fourth" />
<trip type="noVar" depart="143" id="Grant-Seventh-Sixth.21" from="Grant-Seventh-Sixth" to="Grant-Forbes-Fourth" />
<trip type="noVar" depart="143" id="WilliamPenn-Seventh-Sixth.11" from="WilliamPenn-Seventh-Sixth" to="Sixth-WilliamPenn-Smithfield" />
<trip type="noVar" depart="143" id="Grant-Fourth-Forbes.19" from="Grant-Fourth-Forbes" to="Forbes-WilliamPenn-Smithfield" />
<trip type="noVar" depart="143" id="Ross-Fourth-Forbes.19" from="Ross-Fourth-Forbes" to="Sixth-WilliamPenn-Smithfield" />
<trip type="noVar" depart="144" id="Sixth-RHS-Ross.16" from="Sixth-RHS-Ross" to="Grant-Forbes-Fourth" />
<trip type="noVar" depart="144" id="Fifth-RHS-Ross.13" from="Fifth-RHS-Ross" to="Fifth-WilliamPenn-Smithfield" />
<trip type="noVar" depart="144" id="Forbes-RHS-Ross.19" from="Forbes-RHS-Ross" to="Grant-Forbes-Fourth" />
<trip type="noVar" depart="145" id="Oliver-Smithfield-WilliamPenn.12" from="Oliver-Smithfield-WilliamPenn" to="Grant-Sixth-Seventh" />
<trip type="noVar" depart="146" id="Sixth-Smithfield-WilliamPenn.14" from="Sixth-Smithfield-WilliamPenn" to="Sixth-Ross-RHS" />
<trip type="noVar" depart="148" id="Ross-Seventh-Sixth.21" from="Ross-Seventh-Sixth" to="Grant-Sixth-Seventh" />
<trip type="noVar" depart="150" id="Grant-Seventh-Sixth.22" from="Grant-Seventh-Sixth" to="Forbes-Ross-RHS" />
<trip type="noVar" depart="151" id="Grant-Fourth-Forbes.20" from="Grant-Fourth-Forbes" to="Fifth-Ross-RHS" />
<trip type="noVar" depart="151" id="Ross-Fourth-Forbes.20" from="Ross-Fourth-Forbes" to="WilliamPenn-Forbes-Fourth" />
<trip type="noVar" depart="152" id="Forbes-RHS-Ross.20" from="Forbes-RHS-Ross" to="Ross-Forbes-Fourth" />
<trip type="noVar" depart="153" id="Sixth-RHS-Ross.17" from="Sixth-RHS-Ross" to="Ross-Sixth-Seventh" />
<trip type="noVar" depart="155" id="Ross-Seventh-Sixth.22" from="Ross-Seventh-Sixth" to="Grant-Sixth-Seventh" />
<trip type="noVar" depart="155" id="Fifth-RHS-Ross.14" from="Fifth-RHS-Ross" to="Ross-Sixth-Seventh" />
<trip type="noVar" depart="156" id="Grant-Seventh-Sixth.23" from="Grant-Seventh-Sixth" to="Grant-Forbes-Fourth" />
<trip type="noVar" depart="156" id="WilliamPenn-Seventh-Sixth.12" from="WilliamPenn-Seventh-Sixth" to="WilliamPenn-Forbes-Fourth" />
<trip type="noVar" depart="156" id="Sixth-Smithfield-WilliamPenn.15" from="Sixth-Smithfield-WilliamPenn" to="Grant-Sixth-Seventh" />
<trip type="noVar" depart="158" id="Oliver-Smithfield-WilliamPenn.13" from="Oliver-Smithfield-WilliamPenn" to="WilliamPenn-Forbes-Fourth" />
<trip type="noVar" depart="158" id="Grant-Fourth-Forbes.21" from="Grant-Fourth-Forbes" to="Grant-Sixth-Seventh" />
<trip type="noVar" depart="158" id="Ross-Fourth-Forbes.21" from="Ross-Fourth-Forbes" to="Forbes-Ross-RHS" />
<trip type="noVar" depart="160" id="Forbes-RHS-Ross.21" from="Forbes-RHS-Ross" to="Ross-Forbes-Fourth" />
<trip type="noVar" depart="162" id="Ross-Seventh-Sixth.23" from="Ross-Seventh-Sixth" to="Sixth-Ross-RHS" />
<trip type="noVar" depart="162" id="Sixth-RHS-Ross.18" from="Sixth-RHS-Ross" to="Grant-Sixth-Seventh" />
<trip type="noVar" depart="163" id="Grant-Seventh-Sixth.24" from="Grant-Seventh-Sixth" to="Grant-Forbes-Fourth" />
<trip type="noVar" depart="166" id="Grant-Fourth-Forbes.22" from="Grant-Fourth-Forbes" to="Grant-Sixth-Seventh" />
<trip type="noVar" depart="166" id="Fifth-RHS-Ross.15" from="Fifth-RHS-Ross" to="Grant-Forbes-Fourth" />
<trip type="noVar" depart="166" id="Ross-Fourth-Forbes.22" from="Ross-Fourth-Forbes" to="Sixth-Ross-RHS" />
<trip type="noVar" depart="167" id="Sixth-Smithfield-WilliamPenn.16" from="Sixth-Smithfield-WilliamPenn" to="Forbes-WilliamPenn-Smithfield" />
<trip type="noVar" depart="167" id="Forbes-RHS-Ross.22" from="Forbes-RHS-Ross" to="Grant-Forbes-Fourth" />
<trip type="noVar" depart="169" id="WilliamPenn-Seventh-Sixth.13" from="WilliamPenn-Seventh-Sixth" to="Sixth-WilliamPenn-Smithfield" />
<trip type="noVar" depart="170" id="Grant-Seventh-Sixth.25" from="Grant-Seventh-Sixth" to="Fifth-Ross-RHS" />
<trip type="noVar" depart="170" id="Oliver-Smithfield-WilliamPenn.14" from="Oliver-Smithfield-WilliamPenn" to="Grant-Sixth-Seventh" />
<trip type="noVar" depart="170" id="Ross-Seventh-Sixth.24" from="Ross-Seventh-Sixth" to="Ross-Forbes-Fourth" />
<trip type="noVar" depart="171" id="Sixth-RHS-Ross.19" from="Sixth-RHS-Ross" to="Sixth-WilliamPenn-Smithfield" />
<trip type="noVar" depart="173" id="Grant-Fourth-Forbes.23" from="Grant-Fourth-Forbes" to="Ross-Forbes-Fourth" />
<trip type="noVar" depart="173" id="Ross-Fourth-Forbes.23" from="Ross-Fourth-Forbes" to="Ross-Sixth-Seventh" />
<trip type="noVar" depart="175" id="Forbes-RHS-Ross.23" from="Forbes-RHS-Ross" to="Ross-Forbes-Fourth" />
<trip type="noVar" depart="177" id="Grant-Seventh-Sixth.26" from="Grant-Seventh-Sixth" to="Grant-Forbes-Fourth" />
<trip type="noVar" depart="177" id="Sixth-Smithfield-WilliamPenn.17" from="Sixth-Smithfield-WilliamPenn" to="Sixth-Ross-RHS" />
<trip type="noVar" depart="177" id="Ross-Seventh-Sixth.25" from="Ross-Seventh-Sixth" to="Sixth-WilliamPenn-Smithfield" />
<trip type="noVar" depart="177" id="Fifth-RHS-Ross.16" from="Fifth-RHS-Ross" to="Sixth-Ross-RHS" />
<trip type="noVar" depart="180" id="Fifth-Smithfield-WilliamPenn.4" from="Fifth-Smithfield-WilliamPenn" to="Grant-Sixth-Seventh" />
<trip type="noVar" depart="180" id="Sixth-RHS-Ross.20" from="Sixth-RHS-Ross" to="Sixth-WilliamPenn-Smithfield" />
<trip type="noVar" depart="181" id="Grant-Fourth-Forbes.24" from="Grant-Fourth-Forbes" to="Forbes-Ross-RHS" />
<trip type="noVar" depart="181" id="Ross-Fourth-Forbes.24" from="Ross-Fourth-Forbes" to="Forbes-Ross-RHS" />
<trip type="noVar" depart="182" id="WilliamPenn-Seventh-Sixth.14" from="WilliamPenn-Seventh-Sixth" to="Ross-Sixth-Seventh" />
<trip type="noVar" depart="182" id="Oliver-Smithfield-WilliamPenn.15" from="Oliver-Smithfield-WilliamPenn" to="Grant-Sixth-Seventh" />
<trip type="noVar" depart="183" id="Forbes-RHS-Ross.24" from="Forbes-RHS-Ross" to="WilliamPenn-Forbes-Fourth" />
<trip type="noVar" depart="184" id="Grant-Seventh-Sixth.27" from="Grant-Seventh-Sixth" to="Grant-Forbes-Fourth" />
<trip type="noVar" depart="184" id="Ross-Seventh-Sixth.26" from="Ross-Seventh-Sixth" to="Fifth-Ross-RHS" />
<trip type="noVar" depart="188" id="Sixth-Smithfield-WilliamPenn.18" from="Sixth-Smithfield-WilliamPenn" to="Sixth-Ross-RHS" />
<trip type="noVar" depart="188" id="Fifth-RHS-Ross.17" from="Fifth-RHS-Ross" to="Fifth-WilliamPenn-Smithfield" />
<trip type="noVar" depart="189" id="Grant-Fourth-Forbes.25" from="Grant-Fourth-Forbes" to="Forbes-Ross-RHS" />
<trip type="noVar" depart="189" id="Sixth-RHS-Ross.21" from="Sixth-RHS-Ross" to="Grant-Forbes-Fourth" />
<trip type="noVar" depart="189" id="Ross-Fourth-Forbes.25" from="Ross-Fourth-Forbes" to="Ross-Sixth-Seventh" />
<trip type="noVar" depart="190" id="Grant-Seventh-Sixth.28" from="Grant-Seventh-Sixth" to="Forbes-WilliamPenn-Smithfield" />
<trip type="noVar" depart="190" id="Forbes-RHS-Ross.25" from="Forbes-RHS-Ross" to="Ross-Forbes-Fourth" />
<trip type="noVar" depart="191" id="Ross-Seventh-Sixth.27" from="Ross-Seventh-Sixth" to="Ross-Forbes-Fourth" />
<trip type="noVar" depart="194" id="Oliver-Smithfield-WilliamPenn.16" from="Oliver-Smithfield-WilliamPenn" to="Grant-Sixth-Seventh" />
<trip type="noVar" depart="195" id="WilliamPenn-Seventh-Sixth.15" from="WilliamPenn-Seventh-Sixth" to="Sixth-WilliamPenn-Smithfield" />
<trip type="noVar" depart="196" id="Grant-Fourth-Forbes.26" from="Grant-Fourth-Forbes" to="Grant-Sixth-Seventh" />
<trip type="noVar" depart="196" id="Ross-Fourth-Forbes.26" from="Ross-Fourth-Forbes" to="Ross-Sixth-Seventh" />
<trip type="noVar" depart="197" id="Grant-Seventh-Sixth.29" from="Grant-Seventh-Sixth" to="Sixth-Ross-RHS" />
<trip type="noVar" depart="198" id="Sixth-Smithfield-WilliamPenn.19" from="Sixth-Smithfield-WilliamPenn" to="Sixth-Ross-RHS" />
<trip type="noVar" depart="198" id="Ross-Seventh-Sixth.28" from="Ross-Seventh-Sixth" to="WilliamPenn-Forbes-Fourth" />
<trip type="noVar" depart="198" id="Sixth-RHS-Ross.22" from="Sixth-RHS-Ross" to="Sixth-WilliamPenn-Smithfield" />
<trip type="noVar" depart="198" id="Forbes-RHS-Ross.26" from="Forbes-RHS-Ross" to="Grant-Forbes-Fourth" />
<trip type="noVar" depart="200" id="Forbes-Smithfield-WilliamPenn.2" from="Forbes-Smithfield-WilliamPenn" to="WilliamPenn-Forbes-Fourth" />
<trip type="noVar" depart="200" id="Fifth-RHS-Ross.18" from="Fifth-RHS-Ross" to="Fifth-WilliamPenn-Smithfield" />
<trip type="noVar" depart="204" id="Grant-Seventh-Sixth.30" from="Grant-Seventh-Sixth" to="Grant-Forbes-Fourth" />
<trip type="noVar" depart="204" id="Grant-Fourth-Forbes.27" from="Grant-Fourth-Forbes" to="Sixth-Ross-RHS" />
<trip type="noVar" depart="204" id="Ross-Fourth-Forbes.27" from="Ross-Fourth-Forbes" to="Ross-Sixth-Seventh" />
<trip type="noVar" depart="205" id="Ross-Seventh-Sixth.29" from="Ross-Seventh-Sixth" to="Fifth-Ross-RHS" />
<trip type="noVar" depart="205" id="Forbes-RHS-Ross.27" from="Forbes-RHS-Ross" to="Ross-Forbes-Fourth" />
<trip type="noVar" depart="206" id="Oliver-Smithfield-WilliamPenn.17" from="Oliver-Smithfield-WilliamPenn" to="Grant-Sixth-Seventh" />
<trip type="noVar" depart="207" id="Sixth-RHS-Ross.23" from="Sixth-RHS-Ross" to="WilliamPenn-Forbes-Fourth" />
<trip type="noVar" depart="208" id="WilliamPenn-Seventh-Sixth.16" from="WilliamPenn-Seventh-Sixth" to="Grant-Forbes-Fourth" />
<trip type="noVar" depart="209" id="Sixth-Smithfield-WilliamPenn.20" from="Sixth-Smithfield-WilliamPenn" to="WilliamPenn-Forbes-Fourth" />
<trip type="noVar" depart="211" id="Grant-Seventh-Sixth.31" from="Grant-Seventh-Sixth" to="Grant-Forbes-Fourth" />
<trip type="noVar" depart="211" id="Grant-Fourth-Forbes.28" from="Grant-Fourth-Forbes" to="Grant-Sixth-Seventh" />