<?xml version="1.0" encoding="UTF-8"?>
<routes xmlns:xsi="http://www.w3.org/2001/XMLSchema-instance" xsi:noNamespaceSchemaLocation="http://sumo.dlr.de/xsd/routes_file.xsd">

<vType id="noVar" speedFactor="1.0" speedDev="0.0"/>
<trip type="noVar" depart="1" id="Fifth-RHS-Ross.57" from="Fifth-RHS-Ross" to="Ross-Sixth-Seventh" />
<trip type="noVar" depart="2" id="Grant-Fourth-Forbes.353" from="Grant-Fourth-Forbes" to="Grant-Sixth-Seventh" />
<trip type="noVar" depart="3" id="Grant-Seventh-Sixth.103" from="Grant-Seventh-Sixth" to="WilliamPenn-Forbes-Fourth" />
<trip type="noVar" depart="3" id="WilliamPenn-Seventh-Sixth.20" from="WilliamPenn-Seventh-Sixth" to="Sixth-WilliamPenn-Smithfield" />
<trip type="noVar" depart="4" id="Grant-Fourth-Forbes.555" from="Grant-Fourth-Forbes" to="Sixth-WilliamPenn-Smithfield" />
<trip type="noVar" depart="4" id="Ross-Fourth-Forbes.66" from="Ross-Fourth-Forbes" to="Forbes-Ross-RHS" />
<trip type="noVar" depart="5" id="Grant-Fourth-Forbes.676" from="Grant-Fourth-Forbes" to="WilliamPenn-Forbes-Fourth" />
<trip type="noVar" depart="6" id="Forbes-RHS-Ross.207" from="Forbes-RHS-Ross" to="Grant-Forbes-Fourth" />
<trip type="noVar" depart="8" id="Forbes-RHS-Ross.278" from="Forbes-RHS-Ross" to="WilliamPenn-Forbes-Fourth" />
<trip type="noVar" depart="8" id="Ross-Fourth-Forbes.290" from="Ross-Fourth-Forbes" to="Fifth-Ross-RHS" />
<trip type="noVar" depart="9" id="Grant-Fourth-Forbes.680" from="Grant-Fourth-Forbes" to="WilliamPenn-Forbes-Fourth" />
<trip type="noVar" depart="10" id="Grant-Seventh-Sixth.195" from="Grant-Seventh-Sixth" to="Grant-Forbes-Fourth" />
<trip type="noVar" depart="11" id="WilliamPenn-Seventh-Sixth.91" from="WilliamPenn-Seventh-Sixth" to="Sixth-WilliamPenn-Smithfield" />
<trip type="noVar" depart="11" id="Grant-Fourth-Forbes.552" from="Grant-Fourth-Forbes" to="Forbes-Ross-RHS" />
<trip type="noVar" depart="12" id="Grant-Seventh-Sixth.14" from="Grant-Seventh-Sixth" to="Grant-Forbes-Fourth" />
<trip type="noVar" depart="12" id="Fifth-RHS-Ross.307" from="Fifth-RHS-Ross" to="Fifth-WilliamPenn-Smithfield" />
<trip type="noVar" depart="15" id="Sixth-RHS-Ross.84" from="Sixth-RHS-Ross" to="Grant-Sixth-Seventh" />
<trip type="noVar" depart="15" id="Ross-Fourth-Forbes.303" from="Ross-Fourth-Forbes" to="Forbes-Ross-RHS" />
<trip type="noVar" depart="18" id="Forbes-RHS-Ross.65" from="Forbes-RHS-Ross" to="WilliamPenn-Forbes-Fourth" />
<trip type="noVar" depart="21" id="Grant-Seventh-Sixth.380" from="Grant-Seventh-Sixth" to="Grant-Forbes-Fourth" />
<trip type="noVar" depart="22" id="Grant-Seventh-Sixth.364" from="Grant-Seventh-Sixth" to="Fifth-WilliamPenn-Smithfield" />
<trip type="noVar" depart="23" id="Grant-Seventh-Sixth.218" from="Grant-Seventh-Sixth" to="Grant-Forbes-Fourth" />
<trip type="noVar" depart="25" id="Oliver-Smithfield-WilliamPenn.21" from="Oliver-Smithfield-WilliamPenn" to="Grant-Forbes-Fourth" />
<trip type="noVar" depart="25" id="Grant-Fourth-Forbes.624" from="Grant-Fourth-Forbes" to="Sixth-Ross-RHS" />
<trip type="noVar" depart="26" id="Grant-Seventh-Sixth.77" from="Grant-Seventh-Sixth" to="WilliamPenn-Forbes-Fourth" />
<trip type="noVar" depart="26" id="WilliamPenn-Seventh-Sixth.24" from="WilliamPenn-Seventh-Sixth" to="WilliamPenn-Forbes-Fourth" />
<trip type="noVar" depart="27" id="Fifth-RHS-Ross.83" from="Fifth-RHS-Ross" to="Fifth-WilliamPenn-Smithfield" />
<trip type="noVar" depart="27" id="Ross-Fourth-Forbes.199" from="Ross-Fourth-Forbes" to="Forbes-Ross-RHS" />
<trip type="noVar" depart="31" id="Grant-Seventh-Sixth.125" from="Grant-Seventh-Sixth" to="Grant-Forbes-Fourth" />
<trip type="noVar" depart="31" id="Oliver-Smithfield-WilliamPenn.113" from="Oliver-Smithfield-WilliamPenn" to="Grant-Forbes-Fourth" />
<trip type="noVar" depart="31" id="Forbes-Smithfield-WilliamPenn.39" from="Forbes-Smithfield-WilliamPenn" to="WilliamPenn-Forbes-Fourth" />
<trip type="noVar" depart="33" id="Grant-Fourth-Forbes.172" from="Grant-Fourth-Forbes" to="Grant-Sixth-Seventh" />
<trip type="noVar" depart="33" id="Grant-Fourth-Forbes.368" from="Grant-Fourth-Forbes" to="WilliamPenn-Forbes-Fourth" />
<trip type="noVar" depart="33" id="Fifth-RHS-Ross.195" from="Fifth-RHS-Ross" to="Fifth-WilliamPenn-Smithfield" />
<trip type="noVar" depart="33" id="Ross-Fourth-Forbes.355" from="Ross-Fourth-Forbes" to="Forbes-WilliamPenn-Smithfield" />
<trip type="noVar" depart="34" id="Oliver-Smithfield-WilliamPenn.93" from="Oliver-Smithfield-WilliamPenn" to="Grant-Forbes-Fourth" />
<trip type="noVar" depart="34" id="Ross-Seventh-Sixth.235" from="Ross-Seventh-Sixth" to="Sixth-WilliamPenn-Smithfield" />
<trip type="noVar" depart="34" id="Forbes-RHS-Ross.337" from="Forbes-RHS-Ross" to="Grant-Forbes-Fourth" />
<trip type="noVar" depart="36" id="Fifth-RHS-Ross.90" from="Fifth-RHS-Ross" to="Fifth-WilliamPenn-Smithfield" />
<trip type="noVar" depart="36" id="Forbes-RHS-Ross.74" from="Forbes-RHS-Ross" to="Ross-Forbes-Fourth" />
<trip type="noVar" depart="37" id="Sixth-Smithfield-WilliamPenn.2" from="Sixth-Smithfield-WilliamPenn" to="Forbes-WilliamPenn-Smithfield" />
<trip type="noVar" depart="38" id="Fifth-RHS-Ross.255" from="Fifth-RHS-Ross" to="Fifth-WilliamPenn-Smithfield" />
<trip type="noVar" depart="39" id="Ross-Fourth-Forbes.337" from="Ross-Fourth-Forbes" to="WilliamPenn-Forbes-Fourth" />
<trip type="noVar" depart="40" id="Sixth-RHS-Ross.136" from="Sixth-RHS-Ross" to="Grant-Sixth-Seventh" />
<trip type="noVar" depart="40" id="Ross-Fourth-Forbes.46" from="Ross-Fourth-Forbes" to="Forbes-Ross-RHS" />
<trip type="noVar" depart="42" id="Ross-Fourth-Forbes.362" from="Ross-Fourth-Forbes" to="Forbes-Ross-RHS" />
<trip type="noVar" depart="44" id="Grant-Seventh-Sixth.369" from="Grant-Seventh-Sixth" to="WilliamPenn-Forbes-Fourth" />
<trip type="noVar" depart="44" id="WilliamPenn-Seventh-Sixth.7" from="WilliamPenn-Seventh-Sixth" to="Oliver-WilliamPenn-Smithfield" />
<trip type="noVar" depart="45" id="Grant-Seventh-Sixth.50" from="Grant-Seventh-Sixth" to="Fifth-Ross-RHS" />
<trip type="noVar" depart="46" id="Grant-Fourth-Forbes.672" from="Grant-Fourth-Forbes" to="Fifth-Ross-RHS" />
<trip type="noVar" depart="46" id="Sixth-RHS-Ross.101" from="Sixth-RHS-Ross" to="Grant-Sixth-Seventh" />
<trip type="noVar" depart="46" id="Sixth-RHS-Ross.312" from="Sixth-RHS-Ross" to="Sixth-WilliamPenn-Smithfield" />
<trip type="noVar" depart="49" id="Fifth-Smithfield-WilliamPenn.1" from="Fifth-Smithfield-WilliamPenn" to="Ross-Forbes-Fourth" />
<trip type="noVar" depart="52" id="Grant-Fourth-Forbes.278" from="Grant-Fourth-Forbes" to="Oliver-WilliamPenn-Smithfield" />
<trip type="noVar" depart="53" id="Grant-Seventh-Sixth.169" from="Grant-Seventh-Sixth" to="Grant-Forbes-Fourth" />
<trip type="noVar" depart="53" id="Sixth-Smithfield-WilliamPenn.49" from="Sixth-Smithfield-WilliamPenn" to="Sixth-Ross-RHS" />
<trip type="noVar" depart="54" id="Grant-Fourth-Forbes.50" from="Grant-Fourth-Forbes" to="WilliamPenn-Forbes-Fourth" />
<trip type="noVar" depart="54" id="Forbes-RHS-Ross.58" from="Forbes-RHS-Ross" to="Ross-Forbes-Fourth" />
<trip type="noVar" depart="55" id="Ross-Seventh-Sixth.182" from="Ross-Seventh-Sixth" to="Ross-Forbes-Fourth" />
<trip type="noVar" depart="55" id="Ross-Fourth-Forbes.229" from="Ross-Fourth-Forbes" to="Forbes-WilliamPenn-Smithfield" />
<trip type="noVar" depart="56" id="Grant-Fourth-Forbes.33" from="Grant-Fourth-Forbes" to="Fifth-Ross-RHS" />
<trip type="noVar" depart="56" id="Ross-Seventh-Sixth.68" from="Ross-Seventh-Sixth" to="Grant-Forbes-Fourth" />
<trip type="noVar" depart="57" id="Sixth-Smithfield-WilliamPenn.48" from="Sixth-Smithfield-WilliamPenn" to="Grant-Sixth-Seventh" />
<trip type="noVar" depart="57" id="Grant-Fourth-Forbes.226" from="Grant-Fourth-Forbes" to="Grant-Sixth-Seventh" />
<trip type="noVar" depart="58" id="Sixth-Smithfield-WilliamPenn.33" from="Sixth-Smithfield-WilliamPenn" to="Grant-Sixth-Seventh" />
<trip type="noVar" depart="58" id="Oliver-Smithfield-WilliamPenn.50" from="Oliver-Smithfield-WilliamPenn" to="Grant-Forbes-Fourth" />
<trip type="noVar" depart="58" id="Sixth-RHS-Ross.225" from="Sixth-RHS-Ross" to="Grant-Forbes-Fourth" />
<trip type="noVar" depart="62" id="Grant-Seventh-Sixth.146" from="Grant-Seventh-Sixth" to="Grant-Forbes-Fourth" />
<trip type="noVar" depart="62" id="Oliver-Smithfield-WilliamPenn.106" from="Oliver-Smithfield-WilliamPenn" to="WilliamPenn-Forbes-Fourth" />
<trip type="noVar" depart="62" id="Ross-Seventh-Sixth.45" from="Ross-Seventh-Sixth" to="Sixth-Ross-RHS" />
<trip type="noVar" depart="63" id="WilliamPenn-Seventh-Sixth.188" from="WilliamPenn-Seventh-Sixth" to="Ross-Sixth-Seventh" />
<trip type="noVar" depart="64" id="Grant-Fourth-Forbes.511" from="Grant-Fourth-Forbes" to="Forbes-Ross-RHS" />
<trip type="noVar" depart="64" id="Fifth-RHS-Ross.271" from="Fifth-RHS-Ross" to="Grant-Forbes-Fourth" />
<trip type="noVar" depart="66" id="WilliamPenn-Seventh-Sixth.122" from="WilliamPenn-Seventh-Sixth" to="Sixth-Ross-RHS" />
<trip type="noVar" depart="66" id="Sixth-RHS-Ross.50" from="Sixth-RHS-Ross" to="Sixth-WilliamPenn-Smithfield" />
<trip type="noVar" depart="69" id="Grant-Fourth-Forbes.317" from="Grant-Fourth-Forbes" to="Sixth-WilliamPenn-Smithfield" />
<trip type="noVar" depart="71" id="Grant-Seventh-Sixth.254" from="Grant-Seventh-Sixth" to="Grant-Forbes-Fourth" />
<trip type="noVar" depart="71" id="Forbes-RHS-Ross.93" from="Forbes-RHS-Ross" to="Forbes-WilliamPenn-Smithfield" />
<trip type="noVar" depart="72" id="Sixth-Smithfield-WilliamPenn.148" from="Sixth-Smithfield-WilliamPenn" to="Ross-Sixth-Seventh" />
<trip type="noVar" depart="72" id="Fifth-RHS-Ross.64" from="Fifth-RHS-Ross" to="Fifth-WilliamPenn-Smithfield" />
<trip type="noVar" depart="74" id="Sixth-Smithfield-WilliamPenn.193" from="Sixth-Smithfield-WilliamPenn" to="Oliver-WilliamPenn-Smithfield" />
<trip type="noVar" depart="77" id="Ross-Fourth-Forbes.139" from="Ross-Fourth-Forbes" to="Fifth-WilliamPenn-Smithfield" />
<trip type="noVar" depart="79" id="Grant-Seventh-Sixth.110" from="Grant-Seventh-Sixth" to="Forbes-WilliamPenn-Smithfield" />
<trip type="noVar" depart="79" id="Grant-Fourth-Forbes.107" from="Grant-Fourth-Forbes" to="Forbes-WilliamPenn-Smithfield" />
<trip type="noVar" depart="80" id="Sixth-RHS-Ross.298" from="Sixth-RHS-Ross" to="Sixth-WilliamPenn-Smithfield" />
<trip type="noVar" depart="80" id="Fifth-RHS-Ross.22" from="Fifth-RHS-Ross" to="Grant-Sixth-Seventh" />
<trip type="noVar" depart="82" id="Grant-Fourth-Forbes.607" from="Grant-Fourth-Forbes" to="Ross-Sixth-Seventh" />
<trip type="noVar" depart="83" id="Fifth-RHS-Ross.311" from="Fifth-RHS-Ross" to="Fifth-WilliamPenn-Smithfield" />
<trip type="noVar" depart="83" id="Forbes-RHS-Ross.316" from="Forbes-RHS-Ross" to="Ross-Forbes-Fourth" />
<trip type="noVar" depart="84" id="Sixth-Smithfield-WilliamPenn.34" from="Sixth-Smithfield-WilliamPenn" to="Sixth-Ross-RHS" />
<trip type="noVar" depart="85" id="Forbes-Smithfield-WilliamPenn.42" from="Forbes-Smithfield-WilliamPenn" to="WilliamPenn-Forbes-Fourth" />
<trip type="noVar" depart="85" id="Forbes-RHS-Ross.111" from="Forbes-RHS-Ross" to="Ross-Forbes-Fourth" />
<trip type="noVar" depart="86" id="Fifth-Smithfield-WilliamPenn.33" from="Fifth-Smithfield-WilliamPenn" to="Fifth-Ross-RHS" />
<trip type="noVar" depart="86" id="Ross-Fourth-Forbes.175" from="Ross-Fourth-Forbes" to="Forbes-Ross-RHS" />
<trip type="noVar" depart="89" id="Grant-Fourth-Forbes.439" from="Grant-Fourth-Forbes" to="Grant-Sixth-Seventh" />
<trip type="noVar" depart="91" id="Fifth-RHS-Ross.171" from="Fifth-RHS-Ross" to="Fifth-WilliamPenn-Smithfield" />
<trip type="noVar" depart="92" id="Grant-Fourth-Forbes.274" from="Grant-Fourth-Forbes" to="Grant-Sixth-Seventh" />
<trip type="noVar" depart="93" id="Sixth-RHS-Ross.342" from="Sixth-RHS-Ross" to="Sixth-WilliamPenn-Smithfield" />
<trip type="noVar" depart="95" id="Fifth-Smithfield-WilliamPenn.58" from="Fifth-Smithfield-WilliamPenn" to="Ross-Sixth-Seventh" />
<trip type="noVar" depart="95" id="Fifth-Smithfield-WilliamPenn.96" from="Fifth-Smithfield-WilliamPenn" to="Fifth-Ross-RHS" />
<trip type="noVar" depart="95" id="Ross-Fourth-Forbes.69" from="Ross-Fourth-Forbes" to="Forbes-WilliamPenn-Smithfield" />
<trip type="noVar" depart="96" id="WilliamPenn-Seventh-Sixth.8" from="WilliamPenn-Seventh-Sixth" to="WilliamPenn-Forbes-Fourth" />
<trip type="noVar" depart="96" id="Grant-Fourth-Forbes.388" from="Grant-Fourth-Forbes" to="Ross-Sixth-Seventh" />
<trip type="noVar" depart="96" id="Ross-Seventh-Sixth.163" from="Ross-Seventh-Sixth" to="Sixth-Ross-RHS" />
<trip type="noVar" depart="96" id="Ross-Seventh-Sixth.275" from="Ross-Seventh-Sixth" to="Ross-Forbes-Fourth" />
<trip type="noVar" depart="96" id="Forbes-RHS-Ross.10" from="Forbes-RHS-Ross" to="Ross-Forbes-Fourth" />
<trip type="noVar" depart="96" id="Ross-Fourth-Forbes.276" from="Ross-Fourth-Forbes" to="Forbes-Ross-RHS" />
<trip type="noVar" depart="98" id="Ross-Fourth-Forbes.148" from="Ross-Fourth-Forbes" to="WilliamPenn-Forbes-Fourth" />
<trip type="noVar" depart="99" id="Fifth-RHS-Ross.176" from="Fifth-RHS-Ross" to="Fifth-WilliamPenn-Smithfield" />
<trip type="noVar" depart="100" id="Ross-Seventh-Sixth.130" from="Ross-Seventh-Sixth" to="Grant-Sixth-Seventh" />
<trip type="noVar" depart="101" id="Grant-Seventh-Sixth.82" from="Grant-Seventh-Sixth" to="WilliamPenn-Forbes-Fourth" />
<trip type="noVar" depart="101" id="Forbes-RHS-Ross.151" from="Forbes-RHS-Ross" to="WilliamPenn-Forbes-Fourth" />
<trip type="noVar" depart="101" id="Ross-Fourth-Forbes.77" from="Ross-Fourth-Forbes" to="Forbes-Ross-RHS" />
<trip type="noVar" depart="103" id="Oliver-Smithfield-WilliamPenn.31" from="Oliver-Smithfield-WilliamPenn" to="Grant-Forbes-Fourth" />
<trip type="noVar" depart="104" id="Fifth-RHS-Ross.85" from="Fifth-RHS-Ross" to="Ross-Forbes-Fourth" />
<trip type="noVar" depart="104" id="Ross-Fourth-Forbes.18" from="Ross-Fourth-Forbes" to="Fifth-WilliamPenn-Smithfield" />
<trip type="noVar" depart="106" id="Ross-Fourth-Forbes.288" from="Ross-Fourth-Forbes" to="Grant-Forbes-Fourth" />
<trip type="noVar" depart="108" id="Fifth-RHS-Ross.106" from="Fifth-RHS-Ross" to="Fifth-WilliamPenn-Smithfield" />
<trip type="noVar" depart="109" id="Ross-Seventh-Sixth.42" from="Ross-Seventh-Sixth" to="Grant-Sixth-Seventh" />
<trip type="noVar" depart="110" id="Grant-Fourth-Forbes.85" from="Grant-Fourth-Forbes" to="Forbes-Ross-RHS" />
<trip type="noVar" depart="111" id="Grant-Seventh-Sixth.112" from="Grant-Seventh-Sixth" to="Ross-Forbes-Fourth" />
<trip type="noVar" depart="112" id="Fifth-Smithfield-WilliamPenn.89" from="Fifth-Smithfield-WilliamPenn" to="Grant-Sixth-Seventh" />
<trip type="noVar" depart="112" id="Grant-Fourth-Forbes.74" from="Grant-Fourth-Forbes" to="Fifth-Ross-RHS" />
<trip type="noVar" depart="114" id="Ross-Fourth-Forbes.263" from="Ross-Fourth-Forbes" to="Grant-Sixth-Seventh" />
<trip type="noVar" depart="115" id="Grant-Seventh-Sixth.36" from="Grant-Seventh-Sixth" to="Sixth-WilliamPenn-Smithfield" />
<trip type="noVar" depart="115" id="Grant-Fourth-Forbes.235" from="Grant-Fourth-Forbes" to="WilliamPenn-Forbes-Fourth" />
<trip type="noVar" depart="117" id="WilliamPenn-Seventh-Sixth.127" from="WilliamPenn-Seventh-Sixth" to="Grant-Sixth-Seventh" />
<trip type="noVar" depart="117" id="Grant-Fourth-Forbes.246" from="Grant-Fourth-Forbes" to="Grant-Sixth-Seventh" />
<trip type="noVar" depart="118" id="Grant-Fourth-Forbes.505" from="Grant-Fourth-Forbes" to="Grant-Sixth-Seventh" />
<trip type="noVar" depart="119" id="Sixth-RHS-Ross.108" from="Sixth-RHS-Ross" to="Sixth-WilliamPenn-Smithfield" />
<trip type="noVar" depart="120" id="Ross-Seventh-Sixth.295" from="Ross-Seventh-Sixth" to="Sixth-WilliamPenn-Smithfield" />
<trip type="noVar" depart="122" id="Grant-Fourth-Forbes.610" from="Grant-Fourth-Forbes" to="Fifth-Ross-RHS" />
<trip type="noVar" depart="123" id="Fifth-RHS-Ross.242" from="Fifth-RHS-Ross" to="Forbes-WilliamPenn-Smithfield" />
<trip type="noVar" depart="125" id="Ross-Seventh-Sixth.31" from="Ross-Seventh-Sixth" to="Ross-Forbes-Fourth" />
<trip type="noVar" depart="125" id="Ross-Seventh-Sixth.155" from="Ross-Seventh-Sixth" to="Ross-Forbes-Fourth" />
<trip type="noVar" depart="125" id="Sixth-RHS-Ross.215" from="Sixth-RHS-Ross" to="Grant-Sixth-Seventh" />
<trip type="noVar" depart="126" id="Grant-Seventh-Sixth.247" from="Grant-Seventh-Sixth" to="Ross-Sixth-Seventh" />
<trip type="noVar" depart="128" id="Grant-Fourth-Forbes.252" from="Grant-Fourth-Forbes" to="Forbes-WilliamPenn-Smithfield" />
<trip type="noVar" depart="128" id="Sixth-RHS-Ross.186" from="Sixth-RHS-Ross" to="WilliamPenn-Forbes-Fourth" />
<trip type="noVar" depart="128" id="Forbes-RHS-Ross.324" from="Forbes-RHS-Ross" to="Ross-Forbes-Fourth" />
<trip type="noVar" depart="130" id="Forbes-RHS-Ross.354" from="Forbes-RHS-Ross" to="Grant-Forbes-Fourth" />
<trip type="noVar" depart="131" id="Ross-Fourth-Forbes.16" from="Ross-Fourth-Forbes" to="Forbes-Ross-RHS" />
<trip type="noVar" depart="132" id="Grant-Fourth-Forbes.240" from="Grant-Fourth-Forbes" to="Forbes-Ross-RHS" />
<trip type="noVar" depart="133" id="Oliver-Smithfield-WilliamPenn.74" from="Oliver-Smithfield-WilliamPenn" to="Oliver-WilliamPenn-Smithfield" />
<trip type="noVar" depart="133" id="Oliver-Smithfield-WilliamPenn.146" from="Oliver-Smithfield-WilliamPenn" to="Grant-Sixth-Seventh" />
<trip type="noVar" depart="133" id="Fifth-RHS-Ross.175" from="Fifth-RHS-Ross" to="Fifth-WilliamPenn-Smithfield" />
<trip type="noVar" depart="134" id="Forbes-Smithfield-WilliamPenn.16" from="Forbes-Smithfield-WilliamPenn" to="WilliamPenn-Forbes-Fourth" />
<trip type="noVar" depart="134" id="Fifth-RHS-Ross.11" from="Fifth-RHS-Ross" to="Sixth-Ross-RHS" />
<trip type="noVar" depart="134" id="Ross-Fourth-Forbes.339" from="Ross-Fourth-Forbes" to="Grant-Forbes-Fourth" />
<trip type="noVar" depart="137" id="Fifth-RHS-Ross.166" from="Fifth-RHS-Ross" to="WilliamPenn-Forbes-Fourth" />
<trip type="noVar" depart="139" id="WilliamPenn-Seventh-Sixth.41" from="WilliamPenn-Seventh-Sixth" to="Fifth-WilliamPenn-Smithfield" />
<trip type="noVar" depart="140" id="Grant-Seventh-Sixth.44" from="Grant-Seventh-Sixth" to="Forbes-WilliamPenn-Smithfield" />
<trip type="noVar" depart="140" id="Sixth-Smithfield-WilliamPenn.191" from="Sixth-Smithfield-WilliamPenn" to="Ross-Sixth-Seventh" />
<trip type="noVar" depart="141" id="Grant-Seventh-Sixth.361" from="Grant-Seventh-Sixth" to="Ross-Sixth-Seventh" />
<trip type="noVar" depart="144" id="Grant-Fourth-Forbes.528" from="Grant-Fourth-Forbes" to="Forbes-WilliamPenn-Smithfield" />
<trip type="noVar" depart="144" id="Ross-Fourth-Forbes.151" from="Ross-Fourth-Forbes" to="Sixth-WilliamPenn-Smithfield" />
<trip type="noVar" depart="145" id="Grant-Seventh-Sixth.216" from="Grant-Seventh-Sixth" to="Grant-Forbes-Fourth" />
<trip type="noVar" depart="147" id="Grant-Fourth-Forbes.447" from="Grant-Fourth-Forbes" to="Fifth-Ross-RHS" />
<trip type="noVar" depart="147" id="Sixth-RHS-Ross.210" from="Sixth-RHS-Ross" to="Fifth-Ross-RHS" />
<trip type="noVar" depart="148" id="Fifth-RHS-Ross.72" from="Fifth-RHS-Ross" to="Sixth-Ross-RHS" />
<trip type="noVar" depart="149" id="Forbes-RHS-Ross.274" from="Forbes-RHS-Ross" to="Grant-Forbes-Fourth" />
<trip type="noVar" depart="153" id="Sixth-Smithfield-WilliamPenn.106" from="Sixth-Smithfield-WilliamPenn" to="Fifth-WilliamPenn-Smithfield" />
<trip type="noVar" depart="153" id="Grant-Fourth-Forbes.58" from="Grant-Fourth-Forbes" to="Grant-Sixth-Seventh" />
<trip type="noVar" depart="153" id="Grant-Fourth-Forbes.336" from="Grant-Fourth-Forbes" to="Ross-Sixth-Seventh" />
<trip type="noVar" depart="154" id="Grant-Fourth-Forbes.121" from="Grant-Fourth-Forbes" to="Forbes-WilliamPenn-Smithfield" />
<trip type="noVar" depart="154" id="Forbes-RHS-Ross.51" from="Forbes-RHS-Ross" to="WilliamPenn-Forbes-Fourth" />
<trip type="noVar" depart="156" id="WilliamPenn-Seventh-Sixth.92" from="WilliamPenn-Seventh-Sixth" to="Sixth-WilliamPenn-Smithfield" />
<trip type="noVar" depart="156" id="Forbes-RHS-Ross.179" from="Forbes-RHS-Ross" to="Ross-Forbes-Fourth" />
<trip type="noVar" depart="157" id="Forbes-RHS-Ross.267" from="Forbes-RHS-Ross" to="Grant-Forbes-Fourth" />
<trip type="noVar" depart="160" id="Grant-Seventh-Sixth.192" from="Grant-Seventh-Sixth" to="Grant-Forbes-Fourth" />
<trip type="noVar" depart="160" id="Ross-Fourth-Forbes.159" from="Ross-Fourth-Forbes" to="Forbes-Ross-RHS" />
<trip type="noVar" depart="162" id="Oliver-Smithfield-WilliamPenn.97" from="Oliver-Smithfield-WilliamPenn" to="Sixth-WilliamPenn-Smithfield" />
<trip type="noVar" depart="163" id="Grant-Seventh-Sixth.276" from="Grant-Seventh-Sixth" to="Grant-Forbes-Fourth" />
<trip type="noVar" depart="163" id="Grant-Fourth-Forbes.562" from="Grant-Fourth-Forbes" to="Forbes-WilliamPenn-Smithfield" />
<trip type="noVar" depart="163" id="Grant-Fourth-Forbes.631" from="Grant-Fourth-Forbes" to="Sixth-Ross-RHS" />
<trip type="noVar" depart="163" id="Ross-Seventh-Sixth.179" from="Ross-Seventh-Sixth" to="Grant-Sixth-Seventh" />
<trip type="noVar" depart="164" id="Ross-Seventh-Sixth.260" from="Ross-Seventh-Sixth" to="Forbes-WilliamPenn-Smithfield" />
<trip type="noVar" depart="165" id="Sixth-Smithfield-WilliamPenn.76" from="Sixth-Smithfield-WilliamPenn" to="Grant-Sixth-Seventh" />
<trip type="noVar" depart="166" id="Sixth-Smithfield-WilliamPenn.103" from="Sixth-Smithfield-WilliamPenn" to="Ross-Forbes-Fourth" />
<trip type="noVar" depart="167" id="Ross-Fourth-Forbes.304" from="Ross-Fourth-Forbes" to="Fifth-WilliamPenn-Smithfield" />
<trip type="noVar" depart="169" id="WilliamPenn-Seventh-Sixth.146" from="WilliamPenn-Seventh-Sixth" to="Fifth-WilliamPenn-Smithfield" />
<trip type="noVar" depart="169" id="Ross-Fourth-Forbes.119" from="Ross-Fourth-Forbes" to="Forbes-Ross-RHS" />
<trip type="noVar" depart="171" id="Grant-Fourth-Forbes.364" from="Grant-Fourth-Forbes" to="Grant-Sixth-Seventh" />
<trip type="noVar" depart="171" id="Sixth-RHS-Ross.228" from="Sixth-RHS-Ross" to="Grant-Sixth-Seventh" />
<trip type="noVar" depart="172" id="WilliamPenn-Seventh-Sixth.143" from="WilliamPenn-Seventh-Sixth" to="Grant-Sixth-Seventh" />
<trip type="noVar" depart="173" id="Grant-Fourth-Forbes.233" from="Grant-Fourth-Forbes" to="Ross-Forbes-Fourth" />
<trip type="noVar" depart="173" id="Grant-Fourth-Forbes.289" from="Grant-Fourth-Forbes" to="Sixth-WilliamPenn-Smithfield" />
<trip type="noVar" depart="173" id="Sixth-RHS-Ross.285" from="Sixth-RHS-Ross" to="Ross-Sixth-Seventh" />
<trip type="noVar" depart="174" id="Fifth-Smithfield-WilliamPenn.54" from="Fifth-Smithfield-WilliamPenn" to="Ross-Forbes-Fourth" />
<trip type="noVar" depart="174" id="Forbes-RHS-Ross.253" from="Forbes-RHS-Ross" to="Grant-Forbes-Fourth" />
<trip type="noVar" depart="178" id="Ross-Fourth-Forbes.254" from="Ross-Fourth-Forbes" to="WilliamPenn-Forbes-Fourth" />
<trip type="noVar" depart="181" id="Sixth-Smithfield-WilliamPenn.153" from="Sixth-Smithfield-WilliamPenn" to="Ross-Sixth-Seventh" />
<trip type="noVar" depart="181" id="Forbes-RHS-Ross.38" from="Forbes-RHS-Ross" to="Grant-Forbes-Fourth" />
<trip type="noVar" depart="182" id="Grant-Seventh-Sixth.205" from="Grant-Seventh-Sixth" to="Fifth-WilliamPenn-Smithfield" />
<trip type="noVar" depart="182" id="Ross-Seventh-Sixth.170" from="Ross-Seventh-Sixth" to="Sixth-WilliamPenn-Smithfield" />
<trip type="noVar" depart="183" id="Sixth-Smithfield-WilliamPenn.41" from="Sixth-Smithfield-WilliamPenn" to="Oliver-WilliamPenn-Smithfield" />
<trip type="noVar" depart="183" id="Sixth-RHS-Ross.214" from="Sixth-RHS-Ross" to="Grant-Sixth-Seventh" />
<trip type="noVar" depart="187" id="Grant-Fourth-Forbes.244" from="Grant-Fourth-Forbes" to="Grant-Sixth-Seventh" />
<trip type="noVar" depart="187" id="Ross-Seventh-Sixth.176" from="Ross-Seventh-Sixth" to="Sixth-WilliamPenn-Smithfield" />
<trip type="noVar" depart="188" id="Grant-Fourth-Forbes.424" from="Grant-Fourth-Forbes" to="Ross-Forbes-Fourth" />
<trip type="noVar" depart="190" id="Fifth-Smithfield-WilliamPenn.115" from="Fifth-Smithfield-WilliamPenn" to="Ross-Forbes-Fourth" />
<trip type="noVar" depart="190" id="Grant-Fourth-Forbes.194" from="Grant-Fourth-Forbes" to="Grant-Sixth-Seventh" />
<trip type="noVar" depart="192" id="Grant-Fourth-Forbes.664" from="Grant-Fourth-Forbes" to="WilliamPenn-Forbes-Fourth" />
<trip type="noVar" depart="192" id="Ross-Fourth-Forbes.238" from="Ross-Fourth-Forbes" to="Forbes-Ross-RHS" />
<trip type="noVar" depart="193" id="Grant-Fourth-Forbes.603" from="Grant-Fourth-Forbes" to="Forbes-Ross-RHS" />
<trip type="noVar" depart="194" id="Fifth-RHS-Ross.142" from="Fifth-RHS-Ross" to="Grant-Forbes-Fourth" />
<trip type="noVar" depart="195" id="Sixth-Smithfield-WilliamPenn.56" from="Sixth-Smithfield-WilliamPenn" to="WilliamPenn-Forbes-Fourth" />
<trip type="noVar" depart="195" id="Fifth-RHS-Ross.330" from="Fifth-RHS-Ross" to="Fifth-WilliamPenn-Smithfield" />
<trip type="noVar" depart="196" id="Grant-Seventh-Sixth.237" from="Grant-Seventh-Sixth" to="Fifth-WilliamPenn-Smithfield" />
<trip type="noVar" depart="196" id="Grant-Seventh-Sixth.277" from="Grant-Seventh-Sixth" to="Grant-Forbes-Fourth" />
<trip type="noVar" depart="196" id="Grant-Fourth-Forbes.183" from="Grant-Fourth-Forbes" to="Grant-Sixth-Seventh" />
<trip type="noVar" depart="197" id="Grant-Seventh-Sixth.38" from="Grant-Seventh-Sixth" to="Ross-Sixth-Seventh" />
<trip type="noVar" depart="201" id="Forbes-RHS-Ross.39" from="Forbes-RHS-Ross" to="Ross-Forbes-Fourth" />
<trip type="noVar" depart="201" id="Forbes-RHS-Ross.122" from="Forbes-RHS-Ross" to="Grant-Forbes-Fourth" />
<trip type="noVar" depart="202" id="WilliamPenn-Seventh-Sixth.163" from="WilliamPenn-Seventh-Sixth" to="Sixth-WilliamPenn-Smithfield" />
<trip type="noVar" depart="204" id="Grant-Seventh-Sixth.266" from="Grant-Seventh-Sixth" to="Sixth-Ross-RHS" />
<trip type="noVar" depart="204" id="WilliamPenn-Seventh-Sixth.150" from="WilliamPenn-Seventh-Sixth" to="Sixth-WilliamPenn-Smithfield" />
<trip type="noVar" depart="204" id="Ross-Seventh-Sixth.252" from="Ross-Seventh-Sixth" to="Ross-Forbes-Fourth" />
<trip type="noVar" depart="204" id="Ross-Fourth-Forbes.212" from="Ross-Fourth-Forbes" to="Forbes-Ross-RHS" />
<trip type="noVar" depart="206" id="Fifth-RHS-Ross.38" from="Fifth-RHS-Ross" to="Ross-Forbes-Fourth" />
<trip type="noVar" depart="207" id="Sixth-Smithfield-WilliamPenn.240" from="Sixth-Smithfield-WilliamPenn" to="Grant-Forbes-Fourth" />
<trip type="noVar" depart="209" id="Fifth-RHS-Ross.165" from="Fifth-RHS-Ross" to="Grant-Forbes-Fourth" />
<trip type="noVar" depart="209" id="Forbes-RHS-Ross.246" from="Forbes-RHS-Ross" to="WilliamPenn-Forbes-Fourth" />
<trip type="noVar" depart="212" id="Forbes-Smithfield-WilliamPenn.36" from="Forbes-Smithfield-WilliamPenn" to="WilliamPenn-Forbes-Fourth" />
<trip type="noVar" depart="213" id="WilliamPenn-Seventh-Sixth.202" from="WilliamPenn-Seventh-Sixth" to="WilliamPenn-Forbes-Fourth" />
<trip type="noVar" depart="214" id="Ross-Seventh-Sixth.103" from="Ross-Seventh-Sixth" to="WilliamPenn-Forbes-Fourth" />
<trip type="noVar" depart="215" id="Grant-Fourth-Forbes.459" from="Grant-Fourth-Forbes" to="Grant-Sixth-Seventh" />
<trip type="noVar" depart="215" id="Fifth-RHS-Ross.290" from="Fifth-RHS-Ross" to="Ross-Sixth-Seventh" />
<trip type="noVar" depart="216" id="Grant-Fourth-Forbes.498" from="Grant-Fourth-Forbes" to="Grant-Sixth-Seventh" />
<trip type="noVar" depart="216" id="Ross-Seventh-Sixth.316" from="Ross-Seventh-Sixth" to="WilliamPenn-Forbes-Fourth" />
<trip type="noVar" depart="217" id="Grant-Fourth-Forbes.324" from="Grant-Fourth-Forbes" to="Grant-Sixth-Seventh" />
<trip type="noVar" depart="218" id="Ross-Fourth-Forbes.234" from="Ross-Fourth-Forbes" to="Fifth-WilliamPenn-Smithfield" />
<trip type="noVar" depart="219" id="Grant-Seventh-Sixth.304" from="Grant-Seventh-Sixth" to="Sixth-WilliamPenn-Smithfield" />
<trip type="noVar" depart="219" id="Grant-Fourth-Forbes.275" from="Grant-Fourth-Forbes" to="Forbes-WilliamPenn-Smithfield" />
<trip type="noVar" depart="219" id="Ross-Seventh-Sixth.149" from="Ross-Seventh-Sixth" to="Fifth-Ross-RHS" />
<trip type="noVar" depart="219" id="Ross-Fourth-Forbes.407" from="Ross-Fourth-Forbes" to="Forbes-Ross-RHS" />
<trip type="noVar" depart="220" id="Grant-Fourth-Forbes.645" from="Grant-Fourth-Forbes" to="Forbes-WilliamPenn-Smithfield" />
<trip type="noVar" depart="222" id="Grant-Fourth-Forbes.10" from="Grant-Fourth-Forbes" to="Forbes-Ross-RHS" />
<trip type="noVar" depart="222" id="Sixth-RHS-Ross.333" from="Sixth-RHS-Ross" to="Sixth-WilliamPenn-Smithfield" />
<trip type="noVar" depart="222" id="Forbes-RHS-Ross.73" from="Forbes-RHS-Ross" to="WilliamPenn-Forbes-Fourth" />
<trip type="noVar" depart="223" id="Ross-Fourth-Forbes.162" from="Ross-Fourth-Forbes" to="Fifth-Ross-RHS" />
<trip type="noVar" depart="224" id="Ross-Fourth-Forbes.370" from="Ross-Fourth-Forbes" to="Ross-Sixth-Seventh" />
<trip type="noVar" depart="225" id="Sixth-RHS-Ross.127" from="Sixth-RHS-Ross" to="Grant-Forbes-Fourth" />
<trip type="noVar" depart="227" id="Ross-Seventh-Sixth.220" from="Ross-Seventh-Sixth" to="Ross-Forbes-Fourth" />
<trip type="noVar" depart="228" id="Fifth-Smithfield-WilliamPenn.87" from="Fifth-Smithfield-WilliamPenn" to="Fifth-Ross-RHS" />
<trip type="noVar" depart="231" id="Grant-Seventh-Sixth.11" from="Grant-Seventh-Sixth" to="Grant-Forbes-Fourth" />
<trip type="noVar" depart="231" id="Grant-Fourth-Forbes.204" from="Grant-Fourth-Forbes" to="Ross-Sixth-Seventh" />
<trip type="noVar" depart="233" id="Forbes-Smithfield-WilliamPenn.22" from="Forbes-Smithfield-WilliamPenn" to="WilliamPenn-Forbes-Fourth" />
<trip type="noVar" depart="234" id="WilliamPenn-Seventh-Sixth.23" from="WilliamPenn-Seventh-Sixth" to="Sixth-Ross-RHS" />
<trip type="noVar" depart="234" id="Sixth-RHS-Ross.322" from="Sixth-RHS-Ross" to="Fifth-WilliamPenn-Smithfield" />
<trip type="noVar" depart="237" id="Grant-Seventh-Sixth.238" from="Grant-Seventh-Sixth" to="Sixth-Ross-RHS" />