<?xml version="1.0" encoding="UTF-8"?>
<routes xmlns:xsi="http://www.w3.org/2001/XMLSchema-instance" xsi:noNamespaceSchemaLocation="http://sumo.dlr.de/xsd/routes_file.xsd">

<vType id="noVar" speedFactor="1.0" speedDev="0.0"/>
<trip type="noVar" depart="0" id="Sflow.0" from="start" to="goal"/>
<trip type="noVar" depart="0" id="Lflow.0" from="startL" to="goal"/>
<trip type="noVar" depart="0" id="Rflow.0" from="startR" to="goal"/>
<trip type="noVar" depart="3" id="Sflow.1" from="start" to="goal"/>
<trip type="noVar" depart="7" id="Sflow.2" from="start" to="goal"/>
<trip type="noVar" depart="10" id="Sflow.3" from="start" to="goal"/>
<trip type="noVar" depart="12" id="Lflow.1" from="startL" to="goal"/>
<trip type="noVar" depart="12" id="Rflow.1" from="startR" to="goal"/>
<trip type="noVar" depart="14" id="Sflow.4" from="start" to="goal"/>
<trip type="noVar" depart="18" id="Sflow.5" from="start" to="goal"/>
<trip type="noVar" depart="21" id="Sflow.6" from="start" to="goal"/>
<trip type="noVar" depart="24" id="Lflow.2" from="startL" to="goal"/>
<trip type="noVar" depart="24" id="Rflow.2" from="startR" to="goal"/>
<trip type="noVar" depart="25" id="Sflow.7" from="start" to="goal"/>
<trip type="noVar" depart="28" id="Sflow.8" from="start" to="goal"/>
<trip type="noVar" depart="32" id="Sflow.9" from="start" to="goal"/>
<trip type="noVar" depart="36" id="Sflow.10" from="start" to="goal"/>
<trip type="noVar" depart="36" id="Lflow.3" from="startL" to="goal"/>
<trip type="noVar" depart="36" id="Rflow.3" from="startR" to="goal"/>
<trip type="noVar" depart="39" id="Sflow.11" from="start" to="goal"/>
<trip type="noVar" depart="43" id="Sflow.12" from="start" to="goal"/>
<trip type="noVar" depart="46" id="Sflow.13" from="start" to="goal"/>
<trip type="noVar" depart="48" id="Lflow.4" from="startL" to="goal"/>
<trip type="noVar" depart="48" id="Rflow.4" from="startR" to="goal"/>
<trip type="noVar" depart="50" id="Sflow.14" from="start" to="goal"/>
<trip type="noVar" depart="54" id="Sflow.15" from="start" to="goal"/>
<trip type="noVar" depart="57" id="Sflow.16" from="start" to="goal"/>
<trip type="noVar" depart="60" id="Lflow.5" from="startL" to="goal"/>
<trip type="noVar" depart="60" id="Rflow.5" from="startR" to="goal"/>
<trip type="noVar" depart="61" id="Sflow.17" from="start" to="goal"/>
<trip type="noVar" depart="64" id="Sflow.18" from="start" to="goal"/>
<trip type="noVar" depart="68" id="Sflow.19" from="start" to="goal"/>
<trip type="noVar" depart="72" id="Sflow.20" from="start" to="goal"/>
<trip type="noVar" depart="72" id="Lflow.6" from="startL" to="goal"/>
<trip type="noVar" depart="72" id="Rflow.6" from="startR" to="goal"/>
<trip type="noVar" depart="75" id="Sflow.21" from="start" to="goal"/>
<trip type="noVar" depart="79" id="Sflow.22" from="start" to="goal"/>
<trip type="noVar" depart="82" id="Sflow.23" from="start" to="goal"/>
<trip type="noVar" depart="84" id="Lflow.7" from="startL" to="goal"/>
<trip type="noVar" depart="84" id="Rflow.7" from="startR" to="goal"/>
<trip type="noVar" depart="86" id="Sflow.24" from="start" to="goal"/>
<trip type="noVar" depart="90" id="Sflow.25" from="start" to="goal"/>
<trip type="noVar" depart="93" id="Sflow.26" from="start" to="goal"/>
<trip type="noVar" depart="96" id="Lflow.8" from="startL" to="goal"/>
<trip type="noVar" depart="96" id="Rflow.8" from="startR" to="goal"/>
<trip type="noVar" depart="97" id="Sflow.27" from="start" to="goal"/>
<trip type="noVar" depart="100" id="Sflow.28" from="start" to="goal"/>
<trip type="noVar" depart="104" id="Sflow.29" from="start" to="goal"/>
<trip type="noVar" depart="108" id="Sflow.30" from="start" to="goal"/>
<trip type="noVar" depart="108" id="Lflow.9" from="startL" to="goal"/>
<trip type="noVar" depart="108" id="Rflow.9" from="startR" to="goal"/>
<trip type="noVar" depart="111" id="Sflow.31" from="start" to="goal"/>
<trip type="noVar" depart="115" id="Sflow.32" from="start" to="goal"/>
<trip type="noVar" depart="118" id="Sflow.33" from="start" to="goal"/>
<trip type="noVar" depart="120" id="Lflow.10" from="startL" to="goal"/>
<trip type="noVar" depart="120" id="Rflow.10" from="startR" to="goal"/>
<trip type="noVar" depart="122" id="Sflow.34" from="start" to="goal"/>
<trip type="noVar" depart="126" id="Sflow.35" from="start" to="goal"/>
<trip type="noVar" depart="129" id="Sflow.36" from="start" to="goal"/>
<trip type="noVar" depart="132" id="Lflow.11" from="startL" to="goal"/>
<trip type="noVar" depart="132" id="Rflow.11" from="startR" to="goal"/>
<trip type="noVar" depart="133" id="Sflow.37" from="start" to="goal"/>
<trip type="noVar" depart="136" id="Sflow.38" from="start" to="goal"/>
<trip type="noVar" depart="140" id="Sflow.39" from="start" to="goal"/>
<trip type="noVar" depart="144" id="Sflow.40" from="start" to="goal"/>
<trip type="noVar" depart="144" id="Lflow.12" from="startL" to="goal"/>
<trip type="noVar" depart="144" id="Rflow.12" from="startR" to="goal"/>
<trip type="noVar" depart="147" id="Sflow.41" from="start" to="goal"/>
<trip type="noVar" depart="151" id="Sflow.42" from="start" to="goal"/>
<trip type="noVar" depart="154" id="Sflow.43" from="start" to="goal"/>
<trip type="noVar" depart="156" id="Lflow.13" from="startL" to="goal"/>
<trip type="noVar" depart="156" id="Rflow.13" from="startR" to="goal"/>
<trip type="noVar" depart="158" id="Sflow.44" from="start" to="goal"/>
<trip type="noVar" depart="162" id="Sflow.45" from="start" to="goal"/>
<trip type="noVar" depart="165" id="Sflow.46" from="start" to="goal"/>
<trip type="noVar" depart="168" id="Lflow.14" from="startL" to="goal"/>
<trip type="noVar" depart="168" id="Rflow.14" from="startR" to="goal"/>
<trip type="noVar" depart="169" id="Sflow.47" from="start" to="goal"/>
<trip type="noVar" depart="172" id="Sflow.48" from="start" to="goal"/>
<trip type="noVar" depart="176" id="Sflow.49" from="start" to="goal"/>
<trip type="noVar" depart="180" id="Sflow.50" from="start" to="goal"/>
<trip type="noVar" depart="180" id="Lflow.15" from="startL" to="goal"/>
<trip type="noVar" depart="180" id="Rflow.15" from="startR" to="goal"/>
<trip type="noVar" depart="183" id="Sflow.51" from="start" to="goal"/>
<trip type="noVar" depart="187" id="Sflow.52" from="start" to="goal"/>
<trip type="noVar" depart="190" id="Sflow.53" from="start" to="goal"/>
<trip type="noVar" depart="192" id="Lflow.16" from="startL" to="goal"/>
<trip type="noVar" depart="192" id="Rflow.16" from="startR" to="goal"/>
<trip type="noVar" depart="194" id="Sflow.54" from="start" to="goal"/>
<trip type="noVar" depart="198" id="Sflow.55" from="start" to="goal"/>
<trip type="noVar" depart="201" id="Sflow.56" from="start" to="goal"/>
<trip type="noVar" depart="204" id="Lflow.17" from="startL" to="goal"/>
<trip type="noVar" depart="204" id="Rflow.17" from="startR" to="goal"/>
<trip type="noVar" depart="205" id="Sflow.57" from="start" to="goal"/>
<trip type="noVar" depart="209" id="Sflow.58" from="start" to="goal"/>
<trip type="noVar" depart="212" id="Sflow.59" from="start" to="goal"/>
<trip type="noVar" depart="216" id="Sflow.60" from="start" to="goal"/>
<trip type="noVar" depart="216" id="Lflow.18" from="startL" to="goal"/>
<trip type="noVar" depart="216" id="Rflow.18" from="startR" to="goal"/>
<trip type="noVar" depart="219" id="Sflow.61" from="start" to="goal"/>
<trip type="noVar" depart="223" id="Sflow.62" from="start" to="goal"/>
<trip type="noVar" depart="227" id="Sflow.63" from="start" to="goal"/>
<trip type="noVar" depart="228" id="Lflow.19" from="startL" to="goal"/>
<trip type="noVar" depart="228" id="Rflow.19" from="startR" to="goal"/>
<trip type="noVar" depart="230" id="Sflow.64" from="start" to="goal"/>
<trip type="noVar" depart="234" id="Sflow.65" from="start" to="goal"/>
<trip type="noVar" depart="237" id="Sflow.66" from="start" to="goal"/>
<trip type="noVar" depart="240" id="Lflow.20" from="startL" to="goal"/>
<trip type="noVar" depart="240" id="Rflow.20" from="startR" to="goal"/>
<trip type="noVar" depart="241" id="Sflow.67" from="start" to="goal"/>
<trip type="noVar" depart="245" id="Sflow.68" from="start" to="goal"/>
<trip type="noVar" depart="248" id="Sflow.69" from="start" to="goal"/>
<trip type="noVar" depart="252" id="Sflow.70" from="start" to="goal"/>
<trip type="noVar" depart="252" id="Lflow.21" from="startL" to="goal"/>
<trip type="noVar" depart="252" id="Rflow.21" from="startR" to="goal"/>
<trip type="noVar" depart="255" id="Sflow.71" from="start" to="goal"/>
<trip type="noVar" depart="259" id="Sflow.72" from="start" to="goal"/>
<trip type="noVar" depart="263" id="Sflow.73" from="start" to="goal"/>
<trip type="noVar" depart="264" id="Lflow.22" from="startL" to="goal"/>
<trip type="noVar" depart="264" id="Rflow.22" from="startR" to="goal"/>
<trip type="noVar" depart="266" id="Sflow.74" from="start" to="goal"/>
<trip type="noVar" depart="270" id="Sflow.75" from="start" to="goal"/>
<trip type="noVar" depart="273" id="Sflow.76" from="start" to="goal"/>
<trip type="noVar" depart="276" id="Lflow.23" from="startL" to="goal"/>
<trip type="noVar" depart="276" id="Rflow.23" from="startR" to="goal"/>
<trip type="noVar" depart="277" id="Sflow.77" from="start" to="goal"/>
<trip type="noVar" depart="281" id="Sflow.78" from="start" to="goal"/>
<trip type="noVar" depart="284" id="Sflow.79" from="start" to="goal"/>
<trip type="noVar" depart="288" id="Sflow.80" from="start" to="goal"/>
<trip type="noVar" depart="288" id="Lflow.24" from="startL" to="goal"/>
<trip type="noVar" depart="288" id="Rflow.24" from="startR" to="goal"/>
<trip type="noVar" depart="291" id="Sflow.81" from="start" to="goal"/>
<trip type="noVar" depart="295" id="Sflow.82" from="start" to="goal"/>
<trip type="noVar" depart="299" id="Sflow.83" from="start" to="goal"/>
<trip type="noVar" depart="301" id="Lflow.25" from="startL" to="goal"/>
<trip type="noVar" depart="301" id="Rflow.25" from="startR" to="goal"/>
<trip type="noVar" depart="302" id="Sflow.84" from="start" to="goal"/>
<trip type="noVar" depart="306" id="Sflow.85" from="start" to="goal"/>
<trip type="noVar" depart="309" id="Sflow.86" from="start" to="goal"/>
<trip type="noVar" depart="313" id="Lflow.26" from="startL" to="goal"/>
<trip type="noVar" depart="313" id="Rflow.26" from="startR" to="goal"/>
<trip type="noVar" depart="313" id="Sflow.87" from="start" to="goal"/>
<trip type="noVar" depart="317" id="Sflow.88" from="start" to="goal"/>
<trip type="noVar" depart="320" id="Sflow.89" from="start" to="goal"/>
<trip type="noVar" depart="324" id="Sflow.90" from="start" to="goal"/>
<trip type="noVar" depart="325" id="Lflow.27" from="startL" to="goal"/>
<trip type="noVar" depart="325" id="Rflow.27" from="startR" to="goal"/>
<trip type="noVar" depart="327" id="Sflow.91" from="start" to="goal"/>
<trip type="noVar" depart="331" id="Sflow.92" from="start" to="goal"/>
<trip type="noVar" depart="335" id="Sflow.93" from="start" to="goal"/>
<trip type="noVar" depart="337" id="Lflow.28" from="startL" to="goal"/>
<trip type="noVar" depart="337" id="Rflow.28" from="startR" to="goal"/>
<trip type="noVar" depart="338" id="Sflow.94" from="start" to="goal"/>
<trip type="noVar" depart="342" id="Sflow.95" from="start" to="goal"/>
<trip type="noVar" depart="345" id="Sflow.96" from="start" to="goal"/>
<trip type="noVar" depart="349" id="Lflow.29" from="startL" to="goal"/>
<trip type="noVar" depart="349" id="Rflow.29" from="startR" to="goal"/>
<trip type="noVar" depart="349" id="Sflow.97" from="start" to="goal"/>
<trip type="noVar" depart="353" id="Sflow.98" from="start" to="goal"/>
<trip type="noVar" depart="356" id="Sflow.99" from="start" to="goal"/>
<trip type="noVar" depart="360" id="Sflow.100" from="start" to="goal"/>
<trip type="noVar" depart="361" id="Lflow.30" from="startL" to="goal"/>
<trip type="noVar" depart="361" id="Rflow.30" from="startR" to="goal"/>
<trip type="noVar" depart="363" id="Sflow.101" from="start" to="goal"/>
<trip type="noVar" depart="367" id="Sflow.102" from="start" to="goal"/>
<trip type="noVar" depart="371" id="Sflow.103" from="start" to="goal"/>
<trip type="noVar" depart="373" id="Lflow.31" from="startL" to="goal"/>
<trip type="noVar" depart="373" id="Rflow.31" from="startR" to="goal"/>
<trip type="noVar" depart="374" id="Sflow.104" from="start" to="goal"/>
<trip type="noVar" depart="378" id="Sflow.105" from="start" to="goal"/>
<trip type="noVar" depart="381" id="Sflow.106" from="start" to="goal"/>
<trip type="noVar" depart="385" id="Lflow.32" from="startL" to="goal"/>
<trip type="noVar" depart="385" id="Rflow.32" from="startR" to="goal"/>
<trip type="noVar" depart="385" id="Sflow.107" from="start" to="goal"/>
<trip type="noVar" depart="389" id="Sflow.108" from="start" to="goal"/>
<trip type="noVar" depart="392" id="Sflow.109" from="start" to="goal"/>
<trip type="noVar" depart="396" id="Sflow.110" from="start" to="goal"/>
<trip type="noVar" depart="397" id="Lflow.33" from="startL" to="goal"/>
<trip type="noVar" depart="397" id="Rflow.33" from="startR" to="goal"/>
<trip type="noVar" depart="400" id="Sflow.111" from="start" to="goal"/>
<trip type="noVar" depart="403" id="Sflow.112" from="start" to="goal"/>
<trip type="noVar" depart="407" id="Sflow.113" from="start" to="goal"/>
<trip type="noVar" depart="409" id="Lflow.34" from="startL" to="goal"/>
<trip type="noVar" depart="409" id="Rflow.34" from="startR" to="goal"/>
<trip type="noVar" depart="410" id="Sflow.114" from="start" to="goal"/>
<trip type="noVar" depart="414" id="Sflow.115" from="start" to="goal"/>
<trip type="noVar" depart="418" id="Sflow.116" from="start" to="goal"/>
<trip type="noVar" depart="421" id="Lflow.35" from="startL" to="goal"/>
<trip type="noVar" depart="421" id="Rflow.35" from="startR" to="goal"/>
<trip type="noVar" depart="421" id="Sflow.117" from="start" to="goal"/>
<trip type="noVar" depart="425" id="Sflow.118" from="start" to="goal"/>
<trip type="noVar" depart="428" id="Sflow.119" from="start" to="goal"/>
<trip type="noVar" depart="432" id="Sflow.120" from="start" to="goal"/>
<trip type="noVar" depart="433" id="Lflow.36" from="startL" to="goal"/>
<trip type="noVar" depart="433" id="Rflow.36" from="startR" to="goal"/>
<trip type="noVar" depart="436" id="Sflow.121" from="start" to="goal"/>
<trip type="noVar" depart="439" id="Sflow.122" from="start" to="goal"/>
<trip type="noVar" depart="443" id="Sflow.123" from="start" to="goal"/>
<trip type="noVar" depart="445" id="Lflow.37" from="startL" to="goal"/>
<trip type="noVar" depart="445" id="Rflow.37" from="startR" to="goal"/>
<trip type="noVar" depart="446" id="Sflow.124" from="start" to="goal"/>
<trip type="noVar" depart="450" id="Sflow.125" from="start" to="goal"/>
<trip type="noVar" depart="454" id="Sflow.126" from="start" to="goal"/>
<trip type="noVar" depart="457" id="Lflow.38" from="startL" to="goal"/>
<trip type="noVar" depart="457" id="Rflow.38" from="startR" to="goal"/>
<trip type="noVar" depart="457" id="Sflow.127" from="start" to="goal"/>
<trip type="noVar" depart="461" id="Sflow.128" from="start" to="goal"/>
<trip type="noVar" depart="464" id="Sflow.129" from="start" to="goal"/>
<trip type="noVar" depart="468" id="Sflow.130" from="start" to="goal"/>
<trip type="noVar" depart="469" id="Lflow.39" from="startL" to="goal"/>
<trip type="noVar" depart="469" id="Rflow.39" from="startR" to="goal"/>
<trip type="noVar" depart="472" id="Sflow.131" from="start" to="goal"/>
<trip type="noVar" depart="475" id="Sflow.132" from="start" to="goal"/>
<trip type="noVar" depart="479" id="Sflow.133" from="start" to="goal"/>
<trip type="noVar" depart="481" id="Lflow.40" from="startL" to="goal"/>
<trip type="noVar" depart="481" id="Rflow.40" from="startR" to="goal"/>
<trip type="noVar" depart="482" id="Sflow.134" from="start" to="goal"/>
<trip type="noVar" depart="486" id="Sflow.135" from="start" to="goal"/>
<trip type="noVar" depart="490" id="Sflow.136" from="start" to="goal"/>
<trip type="noVar" depart="493" id="Lflow.41" from="startL" to="goal"/>
<trip type="noVar" depart="493" id="Rflow.41" from="startR" to="goal"/>
<trip type="noVar" depart="493" id="Sflow.137" from="start" to="goal"/>
<trip type="noVar" depart="497" id="Sflow.138" from="start" to="goal"/>
<trip type="noVar" depart="500" id="Sflow.139" from="start" to="goal"/>
<trip type="noVar" depart="504" id="Sflow.140" from="start" to="goal"/>
<trip type="noVar" depart="505" id="Lflow.42" from="startL" to="goal"/>
<trip type="noVar" depart="505" id="Rflow.42" from="startR" to="goal"/>
<trip type="noVar" depart="508" id="Sflow.141" from="start" to="goal"/>
<trip type="noVar" depart="511" id="Sflow.142" from="start" to="goal"/>
<trip type="noVar" depart="515" id="Sflow.143" from="start" to="goal"/>
<trip type="noVar" depart="517" id="Lflow.43" from="startL" to="goal"/>
<trip type="noVar" depart="517" id="Rflow.43" from="startR" to="goal"/>
<trip type="noVar" depart="518" id="Sflow.144" from="start" to="goal"/>
<trip type="noVar" depart="522" id="Sflow.145" from="start" to="goal"/>
<trip type="noVar" depart="526" id="Sflow.146" from="start" to="goal"/>
<trip type="noVar" depart="529" id="Sflow.147" from="start" to="goal"/>
<trip type="noVar" depart="529" id="Lflow.44" from="startL" to="goal"/>
<trip type="noVar" depart="529" id="Rflow.44" from="startR" to="goal"/>
<trip type="noVar" depart="533" id="Sflow.148" from="start" to="goal"/>
<trip type="noVar" depart="536" id="Sflow.149" from="start" to="goal"/>
<trip type="noVar" depart="540" id="Sflow.150" from="start" to="goal"/>
<trip type="noVar" depart="541" id="Lflow.45" from="startL" to="goal"/>
<trip type="noVar" depart="541" id="Rflow.45" from="startR" to="goal"/>
<trip type="noVar" depart="544" id="Sflow.151" from="start" to="goal"/>
<trip type="noVar" depart="547" id="Sflow.152" from="start" to="goal"/>
<trip type="noVar" depart="551" id="Sflow.153" from="start" to="goal"/>
<trip type="noVar" depart="553" id="Lflow.46" from="startL" to="goal"/>
<trip type="noVar" depart="553" id="Rflow.46" from="startR" to="goal"/>
<trip type="noVar" depart="554" id="Sflow.154" from="start" to="goal"/>
<trip type="noVar" depart="558" id="Sflow.155" from="start" to="goal"/>
<trip type="noVar" depart="562" id="Sflow.156" from="start" to="goal"/>
<trip type="noVar" depart="565" id="Sflow.157" from="start" to="goal"/>
<trip type="noVar" depart="565" id="Lflow.47" from="startL" to="goal"/>
<trip type="noVar" depart="565" id="Rflow.47" from="startR" to="goal"/>
<trip type="noVar" depart="569" id="Sflow.158" from="start" to="goal"/>
<trip type="noVar" depart="572" id="Sflow.159" from="start" to="goal"/>
<trip type="noVar" depart="576" id="Sflow.160" from="start" to="goal"/>
<trip type="noVar" depart="577" id="Lflow.48" from="startL" to="goal"/>
<trip type="noVar" depart="577" id="Rflow.48" from="startR" to="goal"/>
<trip type="noVar" depart="580" id="Sflow.161" from="start" to="goal"/>
<trip type="noVar" depart="583" id="Sflow.162" from="start" to="goal"/>
<trip type="noVar" depart="587" id="Sflow.163" from="start" to="goal"/>
<trip type="noVar" depart="589" id="Lflow.49" from="startL" to="goal"/>
<trip type="noVar" depart="589" id="Rflow.49" from="startR" to="goal"/>
<trip type="noVar" depart="590" id="Sflow.164" from="start" to="goal"/>
<trip type="noVar" depart="594" id="Sflow.165" from="start" to="goal"/>
<trip type="noVar" depart="598" id="Sflow.166" from="start" to="goal"/>
<trip type="noVar" depart="601" id="Sflow.167" from="start" to="goal"/>
<trip type="noVar" depart="602" id="Lflow.50" from="startL" to="goal"/>
<trip type="noVar" depart="602" id="Rflow.50" from="startR" to="goal"/>
<trip type="noVar" depart="605" id="Sflow.168" from="start" to="goal"/>
<trip type="noVar" depart="609" id="Sflow.169" from="start" to="goal"/>
<trip type="noVar" depart="612" id="Sflow.170" from="start" to="goal"/>
<trip type="noVar" depart="614" id="Lflow.51" from="startL" to="goal"/>
<trip type="noVar" depart="614" id="Rflow.51" from="startR" to="goal"/>
<trip type="noVar" depart="616" id="Sflow.171" from="start" to="goal"/>
<trip type="noVar" depart="619" id="Sflow.172" from="start" to="goal"/>
<trip type="noVar" depart="623" id="Sflow.173" from="start" to="goal"/>
<trip type="noVar" depart="626" id="Lflow.52" from="startL" to="goal"/>
<trip type="noVar" depart="626" id="Rflow.52" from="startR" to="goal"/>
<trip type="noVar" depart="627" id="Sflow.174" from="start" to="goal"/>
<trip type="noVar" depart="630" id="Sflow.175" from="start" to="goal"/>
<trip type="noVar" depart="634" id="Sflow.176" from="start" to="goal"/>
<trip type="noVar" depart="637" id="Sflow.177" from="start" to="goal"/>
<trip type="noVar" depart="638" id="Lflow.53" from="startL" to="goal"/>
<trip type="noVar" depart="638" id="Rflow.53" from="startR" to="goal"/>
<trip type="noVar" depart="641" id="Sflow.178" from="start" to="goal"/>
<trip type="noVar" depart="645" id="Sflow.179" from="start" to="goal"/>
<trip type="noVar" depart="648" id="Sflow.180" from="start" to="goal"/>
<trip type="noVar" depart="650" id="Lflow.54" from="startL" to="goal"/>
<trip type="noVar" depart="650" id="Rflow.54" from="startR" to="goal"/>
<trip type="noVar" depart="652" id="Sflow.181" from="start" to="goal"/>
<trip type="noVar" depart="655" id="Sflow.182" from="start" to="goal"/>
<trip type="noVar" depart="659" id="Sflow.183" from="start" to="goal"/>
<trip type="noVar" depart="662" id="Lflow.55" from="startL" to="goal"/>
<trip type="noVar" depart="662" id="Rflow.55" from="startR" to="goal"/>
<trip type="noVar" depart="663" id="Sflow.184" from="start" to="goal"/>
<trip type="noVar" depart="666" id="Sflow.185" from="start" to="goal"/>
<trip type="noVar" depart="670" id="Sflow.186" from="start" to="goal"/>
<trip type="noVar" depart="673" id="Sflow.187" from="start" to="goal"/>
<trip type="noVar" depart="674" id="Lflow.56" from="startL" to="goal"/>
<trip type="noVar" depart="674" id="Rflow.56" from="startR" to="goal"/>
<trip type="noVar" depart="677" id="Sflow.188" from="start" to="goal"/>
<trip type="noVar" depart="681" id="Sflow.189" from="start" to="goal"/>
<trip type="noVar" depart="684" id="Sflow.190" from="start" to="goal"/>
<trip type="noVar" depart="686" id="Lflow.57" from="startL" to="goal"/>
<trip type="noVar" depart="686" id="Rflow.57" from="startR" to="goal"/>
<trip type="noVar" depart="688" id="Sflow.191" from="start" to="goal"/>
<trip type="noVar" depart="691" id="Sflow.192" from="start" to="goal"/>
<trip type="noVar" depart="695" id="Sflow.193" from="start" to="goal"/>
<trip type="noVar" depart="698" id="Lflow.58" from="startL" to="goal"/>
<trip type="noVar" depart="698" id="Rflow.58" from="startR" to="goal"/>
<trip type="noVar" depart="699" id="Sflow.194" from="start" to="goal"/>
<trip type="noVar" depart="702" id="Sflow.195" from="start" to="goal"/>
<trip type="noVar" depart="706" id="Sflow.196" from="start" to="goal"/>
<trip type="noVar" depart="709" id="Sflow.197" from="start" to="goal"/>
<trip type="noVar" depart="710" id="Lflow.59" from="startL" to="goal"/>
<trip type="noVar" depart="710" id="Rflow.59" from="startR" to="goal"/>
<trip type="noVar" depart="713" id="Sflow.198" from="start" to="goal"/>
<trip type="noVar" depart="717" id="Sflow.199" from="start" to="goal"/>
<trip type="noVar" depart="720" id="Sflow.200" from="start" to="goal"/>
<trip type="noVar" depart="722" id="Lflow.60" from="startL" to="goal"/>
<trip type="noVar" depart="722" id="Rflow.60" from="startR" to="goal"/>
<trip type="noVar" depart="724" id="Sflow.201" from="start" to="goal"/>
<trip type="noVar" depart="727" id="Sflow.202" from="start" to="goal"/>
<trip type="noVar" depart="731" id="Sflow.203" from="start" to="goal"/>
<trip type="noVar" depart="734" id="Lflow.61" from="startL" to="goal"/>
<trip type="noVar" depart="734" id="Rflow.61" from="startR" to="goal"/>
<trip type="noVar" depart="735" id="Sflow.204" from="start" to="goal"/>
<trip type="noVar" depart="738" id="Sflow.205" from="start" to="goal"/>
<trip type="noVar" depart="742" id="Sflow.206" from="start" to="goal"/>
<trip type="noVar" depart="745" id="Sflow.207" from="start" to="goal"/>
<trip type="noVar" depart="746" id="Lflow.62" from="startL" to="goal"/>
<trip type="noVar" depart="746" id="Rflow.62" from="startR" to="goal"/>
<trip type="noVar" depart="749" id="Sflow.208" from="start" to="goal"/>
<trip type="noVar" depart="753" id="Sflow.209" from="start" to="goal"/>
<trip type="noVar" depart="756" id="Sflow.210" from="start" to="goal"/>
<trip type="noVar" depart="758" id="Lflow.63" from="startL" to="goal"/>
<trip type="noVar" depart="758" id="Rflow.63" from="startR" to="goal"/>
<trip type="noVar" depart="760" id="Sflow.211" from="start" to="goal"/>
<trip type="noVar" depart="763" id="Sflow.212" from="start" to="goal"/>
<trip type="noVar" depart="767" id="Sflow.213" from="start" to="goal"/>
<trip type="noVar" depart="770" id="Lflow.64" from="startL" to="goal"/>
<trip type="noVar" depart="770" id="Rflow.64" from="startR" to="goal"/>
<trip type="noVar" depart="771" id="Sflow.214" from="start" to="goal"/>
<trip type="noVar" depart="774" id="Sflow.215" from="start" to="goal"/>
<trip type="noVar" depart="778" id="Sflow.216" from="start" to="goal"/>
<trip type="noVar" depart="781" id="Sflow.217" from="start" to="goal"/>
<trip type="noVar" depart="782" id="Lflow.65" from="startL" to="goal"/>
<trip type="noVar" depart="782" id="Rflow.65" from="startR" to="goal"/>
<trip type="noVar" depart="785" id="Sflow.218" from="start" to="goal"/>
<trip type="noVar" depart="789" id="Sflow.219" from="start" to="goal"/>
<trip type="noVar" depart="792" id="Sflow.220" from="start" to="goal"/>
<trip type="noVar" depart="794" id="Lflow.66" from="startL" to="goal"/>
<trip type="noVar" depart="794" id="Rflow.66" from="startR" to="goal"/>
<trip type="noVar" depart="796" id="Sflow.221" from="start" to="goal"/>
<trip type="noVar" depart="800" id="Sflow.222" from="start" to="goal"/>
<trip type="noVar" depart="803" id="Sflow.223" from="start" to="goal"/>
<trip type="noVar" depart="806" id="Lflow.67" from="startL" to="goal"/>
<trip type="noVar" depart="806" id="Rflow.67" from="startR" to="goal"/>
<trip type="noVar" depart="807" id="Sflow.224" from="start" to="goal"/>
<trip type="noVar" depart="810" id="Sflow.225" from="start" to="goal"/>
<trip type="noVar" depart="814" id="Sflow.226" from="start" to="goal"/>
<trip type="noVar" depart="818" id="Sflow.227" from="start" to="goal"/>
<trip type="noVar" depart="818" id="Lflow.68" from="startL" to="goal"/>
<trip type="noVar" depart="818" id="Rflow.68" from="startR" to="goal"/>
<trip type="noVar" depart="821" id="Sflow.228" from="start" to="goal"/>
<trip type="noVar" depart="825" id="Sflow.229" from="start" to="goal"/>
<trip type="noVar" depart="828" id="Sflow.230" from="start" to="goal"/>
<trip type="noVar" depart="830" id="Lflow.69" from="startL" to="goal"/>
<trip type="noVar" depart="830" id="Rflow.69" from="startR" to="goal"/>
<trip type="noVar" depart="832" id="Sflow.231" from="start" to="goal"/>
<trip type="noVar" depart="836" id="Sflow.232" from="start" to="goal"/>
<trip type="noVar" depart="839" id="Sflow.233" from="start" to="goal"/>
<trip type="noVar" depart="842" id="Lflow.70" from="startL" to="goal"/>
<trip type="noVar" depart="842" id="Rflow.70" from="startR" to="goal"/>
<trip type="noVar" depart="843" id="Sflow.234" from="start" to="goal"/>
<trip type="noVar" depart="846" id="Sflow.235" from="start" to="goal"/>
<trip type="noVar" depart="850" id="Sflow.236" from="start" to="goal"/>
<trip type="noVar" depart="854" id="Sflow.237" from="start" to="goal"/>
<trip type="noVar" depart="854" id="Lflow.71" from="startL" to="goal"/>
<trip type="noVar" depart="854" id="Rflow.71" from="startR" to="goal"/>
<trip type="noVar" depart="857" id="Sflow.238" from="start" to="goal"/>
<trip type="noVar" depart="861" id="Sflow.239" from="start" to="goal"/>
<trip type="noVar" depart="864" id="Sflow.240" from="start" to="goal"/>
<trip type="noVar" depart="866" id="Lflow.72" from="startL" to="goal"/>
<trip type="noVar" depart="866" id="Rflow.72" from="startR" to="goal"/>
<trip type="noVar" depart="868" id="Sflow.241" from="start" to="goal"/>
<trip type="noVar" depart="872" id="Sflow.242" from="start" to="goal"/>
<trip type="noVar" depart="875" id="Sflow.243" from="start" to="goal"/>
<trip type="noVar" depart="878" id="Lflow.73" from="startL" to="goal"/>
<trip type="noVar" depart="878" id="Rflow.73" from="startR" to="goal"/>
<trip type="noVar" depart="879" id="Sflow.244" from="start" to="goal"/>
<trip type="noVar" depart="882" id="Sflow.245" from="start" to="goal"/>
<trip type="noVar" depart="886" id="Sflow.246" from="start" to="goal"/>
<trip type="noVar" depart="890" id="Sflow.247" from="start" to="goal"/>
<trip type="noVar" depart="890" id="Lflow.74" from="startL" to="goal"/>
<trip type="noVar" depart="890" id="Rflow.74" from="startR" to="goal"/>
<trip type="noVar" depart="893" id="Sflow.248" from="start" to="goal"/>
<trip type="noVar" depart="897" id="Sflow.249" from="start" to="goal"/>
<trip type="noVar" depart="900" id="Sflow.250" from="start" to="goal"/>
<trip type="noVar" depart="903" id="Lflow.75" from="startL" to="goal"/>
<trip type="noVar" depart="903" id="Rflow.75" from="startR" to="goal"/>
<trip type="noVar" depart="904" id="Sflow.251" from="start" to="goal"/>
<trip type="noVar" depart="908" id="Sflow.252" from="start" to="goal"/>
<trip type="noVar" depart="911" id="Sflow.253" from="start" to="goal"/>
<trip type="noVar" depart="915" id="Lflow.76" from="startL" to="goal"/>
<trip type="noVar" depart="915" id="Rflow.76" from="startR" to="goal"/>
<trip type="noVar" depart="915" id="Sflow.254" from="start" to="goal"/>
<trip type="noVar" depart="918" id="Sflow.255" from="start" to="goal"/>
<trip type="noVar" depart="922" id="Sflow.256" from="start" to="goal"/>
<trip type="noVar" depart="926" id="Sflow.257" from="start" to="goal"/>
<trip type="noVar" depart="927" id="Lflow.77" from="startL" to="goal"/>
<trip type="noVar" depart="927" id="Rflow.77" from="startR" to="goal"/>
<trip type="noVar" depart="929" id="Sflow.258" from="start" to="goal"/>
<trip type="noVar" depart="933" id="Sflow.259" from="start" to="goal"/>