<?xml version="1.0" encoding="UTF-8"?>
<routes xmlns:xsi="http://www.w3.org/2001/XMLSchema-instance" xsi:noNamespaceSchemaLocation="http://sumo.dlr.de/xsd/routes_file.xsd">

<vType id="noVar" speedFactor="1.0" speedDev="0.0"/>
<route id="route_Sflow.0" edges="start L LR C1 C2 goal" />
<vehicle type="noVar" depart="0" id="Sflow.0" route="route_Sflow.0" />
<route id="route_Lflow.0" edges="startL LR C1 C2 goal" />
<vehicle type="noVar" depart="0" id="Lflow.0" route="route_Lflow.0" />
<route id="route_Rflow.0" edges="startR RL C1 C2 goal" />
<vehicle type="noVar" depart="0" id="Rflow.0" route="route_Rflow.0" />
<route id="route_Sflow.1" edges="start L LR C1 C2 goal" />
<vehicle type="noVar" depart="3" id="Sflow.1" route="route_Sflow.1" />
<route id="route_Sflow.2" edges="start L LR C1 C2 goal" />
<vehicle type="noVar" depart="7" id="Sflow.2" route="route_Sflow.2" />
<route id="route_Sflow.3" edges="start L LR C1 C2 goal" />
<vehicle type="noVar" depart="10" id="Sflow.3" route="route_Sflow.3" />
<route id="route_Lflow.1" edges="startL LR C1 C2 goal" />
<vehicle type="noVar" depart="12" id="Lflow.1" route="route_Lflow.1" />
<route id="route_Rflow.1" edges="startR RL C1 C2 goal" />
<vehicle type="noVar" depart="12" id="Rflow.1" route="route_Rflow.1" />
<route id="route_Sflow.4" edges="start L LR C1 C2 goal" />
<vehicle type="noVar" depart="14" id="Sflow.4" route="route_Sflow.4" />
<route id="route_Sflow.5" edges="start L LR C1 C2 goal" />
<vehicle type="noVar" depart="18" id="Sflow.5" route="route_Sflow.5" />
<route id="route_Sflow.6" edges="start L LR C1 C2 goal" />
<vehicle type="noVar" depart="21" id="Sflow.6" route="route_Sflow.6" />
<route id="route_Lflow.2" edges="startL LR C1 C2 goal" />
<vehicle type="noVar" depart="24" id="Lflow.2" route="route_Lflow.2" />
<route id="route_Rflow.2" edges="startR RL C1 C2 goal" />
<vehicle type="noVar" depart="24" id="Rflow.2" route="route_Rflow.2" />
<route id="route_Sflow.7" edges="start L LR C1 C2 goal" />
<vehicle type="noVar" depart="25" id="Sflow.7" route="route_Sflow.7" />
<route id="route_Sflow.8" edges="start L LR C1 C2 goal" />
<vehicle type="noVar" depart="28" id="Sflow.8" route="route_Sflow.8" />
<route id="route_Sflow.9" edges="start L LR C1 C2 goal" />
<vehicle type="noVar" depart="32" id="Sflow.9" route="route_Sflow.9" />
<route id="route_Sflow.10" edges="start L LR C1 C2 goal" />
<vehicle type="noVar" depart="36" id="Sflow.10" route="route_Sflow.10" />
<route id="route_Lflow.3" edges="startL LR C1 C2 goal" />
<vehicle type="noVar" depart="36" id="Lflow.3" route="route_Lflow.3" />
<route id="route_Rflow.3" edges="startR RL C1 C2 goal" />
<vehicle type="noVar" depart="36" id="Rflow.3" route="route_Rflow.3" />
<route id="route_Sflow.11" edges="start L LR C1 C2 goal" />
<vehicle type="noVar" depart="39" id="Sflow.11" route="route_Sflow.11" />
<route id="route_Sflow.12" edges="start L LR C1 C2 goal" />
<vehicle type="noVar" depart="43" id="Sflow.12" route="route_Sflow.12" />
<route id="route_Sflow.13" edges="start L LR C1 C2 goal" />
<vehicle type="noVar" depart="46" id="Sflow.13" route="route_Sflow.13" />
<route id="route_Lflow.4" edges="startL LR C1 C2 goal" />
<vehicle type="noVar" depart="48" id="Lflow.4" route="route_Lflow.4" />
<route id="route_Rflow.4" edges="startR RL C1 C2 goal" />
<vehicle type="noVar" depart="48" id="Rflow.4" route="route_Rflow.4" />
<route id="route_Sflow.14" edges="start L LR C1 C2 goal" />
<vehicle type="noVar" depart="50" id="Sflow.14" route="route_Sflow.14" />
<route id="route_Sflow.15" edges="start L LR C1 C2 goal" />
<vehicle type="noVar" depart="54" id="Sflow.15" route="route_Sflow.15" />
<route id="route_Sflow.16" edges="start L LR C1 C2 goal" />
<vehicle type="noVar" depart="57" id="Sflow.16" route="route_Sflow.16" />
<route id="route_Lflow.5" edges="startL LR C1 C2 goal" />
<vehicle type="noVar" depart="60" id="Lflow.5" route="route_Lflow.5" />
<route id="route_Rflow.5" edges="startR RL C1 C2 goal" />
<vehicle type="noVar" depart="60" id="Rflow.5" route="route_Rflow.5" />
<route id="route_Sflow.17" edges="start L LR C1 C2 goal" />
<vehicle type="noVar" depart="61" id="Sflow.17" route="route_Sflow.17" />
<route id="route_Sflow.18" edges="start L LR C1 C2 goal" />
<vehicle type="noVar" depart="64" id="Sflow.18" route="route_Sflow.18" />
<route id="route_Sflow.19" edges="start L LR C1 C2 goal" />
<vehicle type="noVar" depart="68" id="Sflow.19" route="route_Sflow.19" />
<route id="route_Sflow.20" edges="start L LR C1 C2 goal" />
<vehicle type="noVar" depart="72" id="Sflow.20" route="route_Sflow.20" />
<route id="route_Lflow.6" edges="startL LR C1 C2 goal" />
<vehicle type="noVar" depart="72" id="Lflow.6" route="route_Lflow.6" />
<route id="route_Rflow.6" edges="startR RL C1 C2 goal" />
<vehicle type="noVar" depart="72" id="Rflow.6" route="route_Rflow.6" />
<route id="route_Sflow.21" edges="start L LR C1 C2 goal" />
<vehicle type="noVar" depart="75" id="Sflow.21" route="route_Sflow.21" />
<route id="route_Sflow.22" edges="start L LR C1 C2 goal" />
<vehicle type="noVar" depart="79" id="Sflow.22" route="route_Sflow.22" />
<route id="route_Sflow.23" edges="start L LR C1 C2 goal" />
<vehicle type="noVar" depart="82" id="Sflow.23" route="route_Sflow.23" />
<route id="route_Lflow.7" edges="startL LR C1 C2 goal" />
<vehicle type="noVar" depart="84" id="Lflow.7" route="route_Lflow.7" />
<route id="route_Rflow.7" edges="startR RL C1 C2 goal" />
<vehicle type="noVar" depart="84" id="Rflow.7" route="route_Rflow.7" />
<route id="route_Sflow.24" edges="start R RL C1 C2 goal" />
<vehicle type="noVar" depart="86" id="Sflow.24" route="route_Sflow.24" />
<route id="route_Sflow.25" edges="start R RL C1 C2 goal" />
<vehicle type="noVar" depart="90" id="Sflow.25" route="route_Sflow.25" />
<route id="route_Sflow.26" edges="start R RL C1 C2 goal" />
<vehicle type="noVar" depart="93" id="Sflow.26" route="route_Sflow.26" />
<route id="route_Lflow.8" edges="startL LR C1 C2 goal" />
<vehicle type="noVar" depart="96" id="Lflow.8" route="route_Lflow.8" />
<route id="route_Rflow.8" edges="startR RL C1 C2 goal" />
<vehicle type="noVar" depart="96" id="Rflow.8" route="route_Rflow.8" />
<route id="route_Sflow.27" edges="start R RL C1 C2 goal" />
<vehicle type="noVar" depart="97" id="Sflow.27" route="route_Sflow.27" />
<route id="route_Sflow.28" edges="start R RL C1 C2 goal" />
<vehicle type="noVar" depart="100" id="Sflow.28" route="route_Sflow.28" />
<route id="route_Sflow.29" edges="start R RL C1 C2 goal" />
<vehicle type="noVar" depart="104" id="Sflow.29" route="route_Sflow.29" />
<route id="route_Sflow.30" edges="start R RL C1 C2 goal" />
<vehicle type="noVar" depart="108" id="Sflow.30" route="route_Sflow.30" />
<route id="route_Lflow.9" edges="startL LR C1 C2 goal" />
<vehicle type="noVar" depart="108" id="Lflow.9" route="route_Lflow.9" />
<route id="route_Rflow.9" edges="startR RL C1 C2 goal" />
<vehicle type="noVar" depart="108" id="Rflow.9" route="route_Rflow.9" />
<route id="route_Sflow.31" edges="start R RL C1 C2 goal" />
<vehicle type="noVar" depart="111" id="Sflow.31" route="route_Sflow.31" />
<route id="route_Sflow.32" edges="start R RL C1 C2 goal" />
<vehicle type="noVar" depart="115" id="Sflow.32" route="route_Sflow.32" />
<route id="route_Sflow.33" edges="start R RL C1 C2 goal" />
<vehicle type="noVar" depart="118" id="Sflow.33" route="route_Sflow.33" />
<route id="route_Lflow.10" edges="startL LR C1 C2 goal" />
<vehicle type="noVar" depart="120" id="Lflow.10" route="route_Lflow.10" />
<route id="route_Rflow.10" edges="startR RL C1 C2 goal" />
<vehicle type="noVar" depart="120" id="Rflow.10" route="route_Rflow.10" />
<route id="route_Sflow.34" edges="start R RL C1 C2 goal" />
<vehicle type="noVar" depart="122" id="Sflow.34" route="route_Sflow.34" />
<route id="route_Sflow.35" edges="start R RL C1 C2 goal" />
<vehicle type="noVar" depart="126" id="Sflow.35" route="route_Sflow.35" />
<route id="route_Sflow.36" edges="start R RL C1 C2 goal" />
<vehicle type="noVar" depart="129" id="Sflow.36" route="route_Sflow.36" />
<route id="route_Lflow.11" edges="startL LR C1 C2 goal" />
<vehicle type="noVar" depart="132" id="Lflow.11" route="route_Lflow.11" />
<route id="route_Rflow.11" edges="startR RL C1 C2 goal" />
<vehicle type="noVar" depart="132" id="Rflow.11" route="route_Rflow.11" />
<route id="route_Sflow.37" edges="start R RL C1 C2 goal" />
<vehicle type="noVar" depart="133" id="Sflow.37" route="route_Sflow.37" />
<route id="route_Sflow.38" edges="start R RL C1 C2 goal" />
<vehicle type="noVar" depart="136" id="Sflow.38" route="route_Sflow.38" />
<route id="route_Sflow.39" edges="start R RL C1 C2 goal" />
<vehicle type="noVar" depart="140" id="Sflow.39" route="route_Sflow.39" />
<route id="route_Sflow.40" edges="start R RL C1 C2 goal" />
<vehicle type="noVar" depart="144" id="Sflow.40" route="route_Sflow.40" />
<route id="route_Lflow.12" edges="startL LR C1 C2 goal" />
<vehicle type="noVar" depart="144" id="Lflow.12" route="route_Lflow.12" />
<route id="route_Rflow.12" edges="startR RL C1 C2 goal" />
<vehicle type="noVar" depart="144" id="Rflow.12" route="route_Rflow.12" />
<route id="route_Sflow.41" edges="start R RL C1 C2 goal" />
<vehicle type="noVar" depart="147" id="Sflow.41" route="route_Sflow.41" />
<route id="route_Sflow.42" edges="start R RL C1 C2 goal" />
<vehicle type="noVar" depart="151" id="Sflow.42" route="route_Sflow.42" />
<route id="route_Sflow.43" edges="start R RR1 RR2 goal" />
<vehicle type="noVar" depart="154" id="Sflow.43" route="route_Sflow.43" />
<route id="route_Lflow.13" edges="startL LR C1 C2 goal" />
<vehicle type="noVar" depart="156" id="Lflow.13" route="route_Lflow.13" />
<route id="route_Rflow.13" edges="startR RL C1 C2 goal" />
<vehicle type="noVar" depart="156" id="Rflow.13" route="route_Rflow.13" />
<route id="route_Sflow.44" edges="start R RR1 RR2 goal" />
<vehicle type="noVar" depart="158" id="Sflow.44" route="route_Sflow.44" />
<route id="route_Sflow.45" edges="start R RR1 RR2 goal" />
<vehicle type="noVar" depart="162" id="Sflow.45" route="route_Sflow.45" />
<route id="route_Sflow.46" edges="start R RR1 RR2 goal" />
<vehicle type="noVar" depart="165" id="Sflow.46" route="route_Sflow.46" />
<route id="route_Lflow.14" edges="startL LL1 LL2 goal" />
<vehicle type="noVar" depart="168" id="Lflow.14" route="route_Lflow.14" />
<route id="route_Rflow.14" edges="startR RL C1 C2 goal" />
<vehicle type="noVar" depart="168" id="Rflow.14" route="route_Rflow.14" />
<route id="route_Sflow.47" edges="start R RR1 RR2 goal" />
<vehicle type="noVar" depart="169" id="Sflow.47" route="route_Sflow.47" />
<route id="route_Sflow.48" edges="start R RR1 RR2 goal" />
<vehicle type="noVar" depart="172" id="Sflow.48" route="route_Sflow.48" />
<route id="route_Sflow.49" edges="start R RR1 RR2 goal" />
<vehicle type="noVar" depart="176" id="Sflow.49" route="route_Sflow.49" />
<route id="route_Sflow.50" edges="start R RR1 RR2 goal" />
<vehicle type="noVar" depart="180" id="Sflow.50" route="route_Sflow.50" />
<route id="route_Lflow.15" edges="startL LL1 LL2 goal" />
<vehicle type="noVar" depart="180" id="Lflow.15" route="route_Lflow.15" />
<route id="route_Rflow.15" edges="startR RR1 RR2 goal" />
<vehicle type="noVar" depart="180" id="Rflow.15" route="route_Rflow.15" />
<route id="route_Sflow.51" edges="start R RR1 RR2 goal" />
<vehicle type="noVar" depart="183" id="Sflow.51" route="route_Sflow.51" />
<route id="route_Sflow.52" edges="start R RR1 RR2 goal" />
<vehicle type="noVar" depart="187" id="Sflow.52" route="route_Sflow.52" />
<route id="route_Sflow.53" edges="start R RR1 RR2 goal" />
<vehicle type="noVar" depart="190" id="Sflow.53" route="route_Sflow.53" />
<route id="route_Lflow.16" edges="startL LL1 LL2 goal" />
<vehicle type="noVar" depart="192" id="Lflow.16" route="route_Lflow.16" />
<route id="route_Rflow.16" edges="startR RR1 RR2 goal" />
<vehicle type="noVar" depart="192" id="Rflow.16" route="route_Rflow.16" />
<route id="route_Sflow.54" edges="start R RR1 RR2 goal" />
<vehicle type="noVar" depart="194" id="Sflow.54" route="route_Sflow.54" />
<route id="route_Sflow.55" edges="start R RR1 RR2 goal" />
<vehicle type="noVar" depart="198" id="Sflow.55" route="route_Sflow.55" />
<route id="route_Sflow.56" edges="start R RR1 RR2 goal" />
<vehicle type="noVar" depart="201" id="Sflow.56" route="route_Sflow.56" />
<route id="route_Lflow.17" edges="startL LL1 LL2 goal" />
<vehicle type="noVar" depart="204" id="Lflow.17" route="route_Lflow.17" />
<route id="route_Rflow.17" edges="startR RR1 RR2 goal" />
<vehicle type="noVar" depart="204" id="Rflow.17" route="route_Rflow.17" />
<route id="route_Sflow.57" edges="start R RR1 RR2 goal" />
<vehicle type="noVar" depart="205" id="Sflow.57" route="route_Sflow.57" />
<route id="route_Sflow.58" edges="start R RR1 RR2 goal" />
<vehicle type="noVar" depart="209" id="Sflow.58" route="route_Sflow.58" />
<route id="route_Sflow.59" edges="start R RR1 RR2 goal" />
<vehicle type="noVar" depart="212" id="Sflow.59" route="route_Sflow.59" />
<route id="route_Sflow.60" edges="start R RR1 RR2 goal" />
<vehicle type="noVar" depart="216" id="Sflow.60" route="route_Sflow.60" />
<route id="route_Lflow.18" edges="startL LL1 LL2 goal" />
<vehicle type="noVar" depart="216" id="Lflow.18" route="route_Lflow.18" />
<route id="route_Rflow.18" edges="startR RR1 RR2 goal" />
<vehicle type="noVar" depart="216" id="Rflow.18" route="route_Rflow.18" />
<route id="route_Sflow.61" edges="start R RR1 RR2 goal" />
<vehicle type="noVar" depart="219" id="Sflow.61" route="route_Sflow.61" />
<route id="route_Sflow.62" edges="start R RR1 RR2 goal" />
<vehicle type="noVar" depart="223" id="Sflow.62" route="route_Sflow.62" />
<route id="route_Sflow.63" edges="start R RR1 RR2 goal" />
<vehicle type="noVar" depart="227" id="Sflow.63" route="route_Sflow.63" />
<route id="route_Lflow.19" edges="startL LL1 LL2 goal" />
<vehicle type="noVar" depart="228" id="Lflow.19" route="route_Lflow.19" />
<route id="route_Rflow.19" edges="startR RR1 RR2 goal" />
<vehicle type="noVar" depart="228" id="Rflow.19" route="route_Rflow.19" />
<route id="route_Sflow.64" edges="start R RR1 RR2 goal" />
<vehicle type="noVar" depart="230" id="Sflow.64" route="route_Sflow.64" />
<route id="route_Sflow.65" edges="start R RR1 RR2 goal" />
<vehicle type="noVar" depart="234" id="Sflow.65" route="route_Sflow.65" />
<route id="route_Sflow.66" edges="start R RR1 RR2 goal" />
<vehicle type="noVar" depart="237" id="Sflow.66" route="route_Sflow.66" />
<route id="route_Lflow.20" edges="startL LL1 LL2 goal" />
<vehicle type="noVar" depart="240" id="Lflow.20" route="route_Lflow.20" />
<route id="route_Rflow.20" edges="startR RR1 RR2 goal" />
<vehicle type="noVar" depart="240" id="Rflow.20" route="route_Rflow.20" />
<route id="route_Sflow.67" edges="start L LL1 LL2 goal" />
<vehicle type="noVar" depart="241" id="Sflow.67" route="route_Sflow.67" />
<route id="route_Sflow.68" edges="start L LL1 LL2 goal" />
<vehicle type="noVar" depart="245" id="Sflow.68" route="route_Sflow.68" />
<route id="route_Sflow.69" edges="start L LL1 LL2 goal" />
<vehicle type="noVar" depart="248" id="Sflow.69" route="route_Sflow.69" />
<route id="route_Sflow.70" edges="start L LL1 LL2 goal" />
<vehicle type="noVar" depart="252" id="Sflow.70" route="route_Sflow.70" />
<route id="route_Lflow.21" edges="startL LL1 LL2 goal" />
<vehicle type="noVar" depart="252" id="Lflow.21" route="route_Lflow.21" />
<route id="route_Rflow.21" edges="startR RR1 RR2 goal" />
<vehicle type="noVar" depart="252" id="Rflow.21" route="route_Rflow.21" />
<route id="route_Sflow.71" edges="start L LL1 LL2 goal" />
<vehicle type="noVar" depart="255" id="Sflow.71" route="route_Sflow.71" />
<route id="route_Sflow.72" edges="start L LL1 LL2 goal" />
<vehicle type="noVar" depart="259" id="Sflow.72" route="route_Sflow.72" />
<route id="route_Sflow.73" edges="start L LL1 LL2 goal" />
<vehicle type="noVar" depart="263" id="Sflow.73" route="route_Sflow.73" />
<route id="route_Lflow.22" edges="startL LR C1 C2 goal" />
<vehicle type="noVar" depart="264" id="Lflow.22" route="route_Lflow.22" />
<route id="route_Rflow.22" edges="startR RR1 RR2 goal" />
<vehicle type="noVar" depart="264" id="Rflow.22" route="route_Rflow.22" />
<route id="route_Sflow.74" edges="start L LL1 LL2 goal" />
<vehicle type="noVar" depart="266" id="Sflow.74" route="route_Sflow.74" />
<route id="route_Sflow.75" edges="start L LL1 LL2 goal" />
<vehicle type="noVar" depart="270" id="Sflow.75" route="route_Sflow.75" />
<route id="route_Sflow.76" edges="start L LL1 LL2 goal" />
<vehicle type="noVar" depart="273" id="Sflow.76" route="route_Sflow.76" />
<route id="route_Lflow.23" edges="startL LR C1 C2 goal" />
<vehicle type="noVar" depart="276" id="Lflow.23" route="route_Lflow.23" />
<route id="route_Rflow.23" edges="startR RL C1 C2 goal" />
<vehicle type="noVar" depart="276" id="Rflow.23" route="route_Rflow.23" />
<route id="route_Sflow.77" edges="start L LL1 LL2 goal" />
<vehicle type="noVar" depart="277" id="Sflow.77" route="route_Sflow.77" />
<route id="route_Sflow.78" edges="start L LL1 LL2 goal" />
<vehicle type="noVar" depart="281" id="Sflow.78" route="route_Sflow.78" />
<route id="route_Sflow.79" edges="start L LL1 LL2 goal" />
<vehicle type="noVar" depart="284" id="Sflow.79" route="route_Sflow.79" />
<route id="route_Sflow.80" edges="start L LR C1 C2 goal" />
<vehicle type="noVar" depart="288" id="Sflow.80" route="route_Sflow.80" />
<route id="route_Lflow.24" edges="startL LR C1 C2 goal" />
<vehicle type="noVar" depart="288" id="Lflow.24" route="route_Lflow.24" />
<route id="route_Rflow.24" edges="startR RL C1 C2 goal" />
<vehicle type="noVar" depart="288" id="Rflow.24" route="route_Rflow.24" />
<route id="route_Sflow.81" edges="start L LR C1 C2 goal" />
<vehicle type="noVar" depart="291" id="Sflow.81" route="route_Sflow.81" />
<route id="route_Sflow.82" edges="start L LR C1 C2 goal" />
<vehicle type="noVar" depart="295" id="Sflow.82" route="route_Sflow.82" />
<route id="route_Sflow.83" edges="start L LR C1 C2 goal" />
<vehicle type="noVar" depart="299" id="Sflow.83" route="route_Sflow.83" />
<route id="route_Lflow.25" edges="startL LR C1 C2 goal" />
<vehicle type="noVar" depart="301" id="Lflow.25" route="route_Lflow.25" />
<route id="route_Rflow.25" edges="startR RL C1 C2 goal" />
<vehicle type="noVar" depart="301" id="Rflow.25" route="route_Rflow.25" />
<route id="route_Sflow.84" edges="start L LR C1 C2 goal" />
<vehicle type="noVar" depart="302" id="Sflow.84" route="route_Sflow.84" />
<route id="route_Sflow.85" edges="start L LR C1 C2 goal" />
<vehicle type="noVar" depart="306" id="Sflow.85" route="route_Sflow.85" />
<route id="route_Sflow.86" edges="start L LR C1 C2 goal" />
<vehicle type="noVar" depart="309" id="Sflow.86" route="route_Sflow.86" />
<route id="route_Lflow.26" edges="startL LR C1 C2 goal" />
<vehicle type="noVar" depart="313" id="Lflow.26" route="route_Lflow.26" />
<route id="route_Rflow.26" edges="startR RL C1 C2 goal" />
<vehicle type="noVar" depart="313" id="Rflow.26" route="route_Rflow.26" />
<route id="route_Sflow.87" edges="start L LR C1 C2 goal" />
<vehicle type="noVar" depart="313" id="Sflow.87" route="route_Sflow.87" />
<route id="route_Sflow.88" edges="start L LR C1 C2 goal" />
<vehicle type="noVar" depart="317" id="Sflow.88" route="route_Sflow.88" />
<route id="route_Sflow.89" edges="start L LR C1 C2 goal" />
<vehicle type="noVar" depart="320" id="Sflow.89" route="route_Sflow.89" />
<route id="route_Sflow.90" edges="start L LR C1 C2 goal" />
<vehicle type="noVar" depart="324" id="Sflow.90" route="route_Sflow.90" />
<route id="route_Lflow.27" edges="startL LR C1 C2 goal" />
<vehicle type="noVar" depart="325" id="Lflow.27" route="route_Lflow.27" />
<route id="route_Rflow.27" edges="startR RL C1 C2 goal" />
<vehicle type="noVar" depart="325" id="Rflow.27" route="route_Rflow.27" />
<route id="route_Sflow.91" edges="start L LR C1 C2 goal" />
<vehicle type="noVar" depart="327" id="Sflow.91" route="route_Sflow.91" />
<route id="route_Sflow.92" edges="start L LR C1 C2 goal" />
<vehicle type="noVar" depart="331" id="Sflow.92" route="route_Sflow.92" />
<route id="route_Sflow.93" edges="start L LR C1 C2 goal" />
<vehicle type="noVar" depart="335" id="Sflow.93" route="route_Sflow.93" />
<route id="route_Lflow.28" edges="startL LR C1 C2 goal" />
<vehicle type="noVar" depart="337" id="Lflow.28" route="route_Lflow.28" />
<route id="route_Rflow.28" edges="startR RL C1 C2 goal" />
<vehicle type="noVar" depart="337" id="Rflow.28" route="route_Rflow.28" />
<route id="route_Sflow.94" edges="start L LR C1 C2 goal" />
<vehicle type="noVar" depart="338" id="Sflow.94" route="route_Sflow.94" />
<route id="route_Sflow.95" edges="start L LR C1 C2 goal" />
<vehicle type="noVar" depart="342" id="Sflow.95" route="route_Sflow.95" />
<route id="route_Sflow.96" edges="start L LR C1 C2 goal" />
<vehicle type="noVar" depart="345" id="Sflow.96" route="route_Sflow.96" />
<route id="route_Lflow.29" edges="startL LR C1 C2 goal" />
<vehicle type="noVar" depart="349" id="Lflow.29" route="route_Lflow.29" />
<route id="route_Rflow.29" edges="startR RL C1 C2 goal" />
<vehicle type="noVar" depart="349" id="Rflow.29" route="route_Rflow.29" />
<route id="route_Sflow.97" edges="start L LR C1 C2 goal" />
<vehicle type="noVar" depart="349" id="Sflow.97" route="route_Sflow.97" />
<route id="route_Sflow.98" edges="start L LR C1 C2 goal" />
<vehicle type="noVar" depart="353" id="Sflow.98" route="route_Sflow.98" />
<route id="route_Sflow.99" edges="start L LR C1 C2 goal" />
<vehicle type="noVar" depart="356" id="Sflow.99" route="route_Sflow.99" />
<route id="route_Sflow.100" edges="start L LR C1 C2 goal" />
<vehicle type="noVar" depart="360" id="Sflow.100" route="route_Sflow.100" />
<route id="route_Lflow.30" edges="startL LR C1 C2 goal" />
<vehicle type="noVar" depart="361" id="Lflow.30" route="route_Lflow.30" />
<route id="route_Rflow.30" edges="startR RL C1 C2 goal" />
<vehicle type="noVar" depart="361" id="Rflow.30" route="route_Rflow.30" />
<route id="route_Sflow.101" edges="start L LR C1 C2 goal" />
<vehicle type="noVar" depart="363" id="Sflow.101" route="route_Sflow.101" />
<route id="route_Sflow.102" edges="start L LR C1 C2 goal" />
<vehicle type="noVar" depart="367" id="Sflow.102" route="route_Sflow.102" />
<route id="route_Sflow.103" edges="start L LR C1 C2 goal" />
<vehicle type="noVar" depart="371" id="Sflow.103" route="route_Sflow.103" />
<route id="route_Lflow.31" edges="startL LR C1 C2 goal" />
<vehicle type="noVar" depart="373" id="Lflow.31" route="route_Lflow.31" />
<route id="route_Rflow.31" edges="startR RL C1 C2 goal" />
<vehicle type="noVar" depart="373" id="Rflow.31" route="route_Rflow.31" />
<route id="route_Sflow.104" edges="start L LR C1 C2 goal" />
<vehicle type="noVar" depart="374" id="Sflow.104" route="route_Sflow.104" />
<route id="route_Sflow.105" edges="start L LR C1 C2 goal" />
<vehicle type="noVar" depart="378" id="Sflow.105" route="route_Sflow.105" />
<route id="route_Sflow.106" edges="start L LR C1 C2 goal" />
<vehicle type="noVar" depart="381" id="Sflow.106" route="route_Sflow.106" />
<route id="route_Lflow.32" edges="startL LR C1 C2 goal" />
<vehicle type="noVar" depart="385" id="Lflow.32" route="route_Lflow.32" />
<route id="route_Rflow.32" edges="startR RL C1 C2 goal" />
<vehicle type="noVar" depart="385" id="Rflow.32" route="route_Rflow.32" />
<route id="route_Sflow.107" edges="start L LR C1 C2 goal" />
<vehicle type="noVar" depart="385" id="Sflow.107" route="route_Sflow.107" />
<route id="route_Sflow.108" edges="start L LR C1 C2 goal" />
<vehicle type="noVar" depart="389" id="Sflow.108" route="route_Sflow.108" />
<route id="route_Sflow.109" edges="start L LR C1 C2 goal" />
<vehicle type="noVar" depart="392" id="Sflow.109" route="route_Sflow.109" />
<route id="route_Sflow.110" edges="start L LR C1 C2 goal" />
<vehicle type="noVar" depart="396" id="Sflow.110" route="route_Sflow.110" />
<route id="route_Lflow.33" edges="startL LR C1 C2 goal" />
<vehicle type="noVar" depart="397" id="Lflow.33" route="route_Lflow.33" />
<route id="route_Rflow.33" edges="startR RL C1 C2 goal" />
<vehicle type="noVar" depart="397" id="Rflow.33" route="route_Rflow.33" />
<route id="route_Sflow.111" edges="start L LR C1 C2 goal" />
<vehicle type="noVar" depart="400" id="Sflow.111" route="route_Sflow.111" />
<route id="route_Sflow.112" edges="start L LR C1 C2 goal" />
<vehicle type="noVar" depart="403" id="Sflow.112" route="route_Sflow.112" />
<route id="route_Sflow.113" edges="start L LR C1 C2 goal" />
<vehicle type="noVar" depart="407" id="Sflow.113" route="route_Sflow.113" />
<route id="route_Lflow.34" edges="startL LR C1 C2 goal" />
<vehicle type="noVar" depart="409" id="Lflow.34" route="route_Lflow.34" />
<route id="route_Rflow.34" edges="startR RL C1 C2 goal" />
<vehicle type="noVar" depart="409" id="Rflow.34" route="route_Rflow.34" />
<route id="route_Sflow.114" edges="start L LR C1 C2 goal" />
<vehicle type="noVar" depart="410" id="Sflow.114" route="route_Sflow.114" />
<route id="route_Sflow.115" edges="start L LR C1 C2 goal" />
<vehicle type="noVar" depart="414" id="Sflow.115" route="route_Sflow.115" />
<route id="route_Sflow.116" edges="start R RL C1 C2 goal" />
<vehicle type="noVar" depart="418" id="Sflow.116" route="route_Sflow.116" />
<route id="route_Lflow.35" edges="startL LR C1 C2 goal" />
<vehicle type="noVar" depart="421" id="Lflow.35" route="route_Lflow.35" />
<route id="route_Rflow.35" edges="startR RL C1 C2 goal" />
<vehicle type="noVar" depart="421" id="Rflow.35" route="route_Rflow.35" />
<route id="route_Sflow.117" edges="start R RL C1 C2 goal" />
<vehicle type="noVar" depart="421" id="Sflow.117" route="route_Sflow.117" />
<route id="route_Sflow.118" edges="start R RL C1 C2 goal" />
<vehicle type="noVar" depart="425" id="Sflow.118" route="route_Sflow.118" />
<route id="route_Sflow.119" edges="start R RL C1 C2 goal" />
<vehicle type="noVar" depart="428" id="Sflow.119" route="route_Sflow.119" />
<route id="route_Sflow.120" edges="start R RL C1 C2 goal" />
<vehicle type="noVar" depart="432" id="Sflow.120" route="route_Sflow.120" />
<route id="route_Lflow.36" edges="startL LR C1 C2 goal" />
<vehicle type="noVar" depart="433" id="Lflow.36" route="route_Lflow.36" />
<route id="route_Rflow.36" edges="startR RL C1 C2 goal" />
<vehicle type="noVar" depart="433" id="Rflow.36" route="route_Rflow.36" />
<route id="route_Sflow.121" edges="start R RL C1 C2 goal" />
<vehicle type="noVar" depart="436" id="Sflow.121" route="route_Sflow.121" />
<route id="route_Sflow.122" edges="start R RL C1 C2 goal" />
<vehicle type="noVar" depart="439" id="Sflow.122" route="route_Sflow.122" />
<route id="route_Sflow.123" edges="start R RL C1 C2 goal" />
<vehicle type="noVar" depart="443" id="Sflow.123" route="route_Sflow.123" />
<route id="route_Lflow.37" edges="startL LR C1 C2 goal" />
<vehicle type="noVar" depart="445" id="Lflow.37" route="route_Lflow.37" />
<route id="route_Rflow.37" edges="startR RL C1 C2 goal" />
<vehicle type="noVar" depart="445" id="Rflow.37" route="route_Rflow.37" />
<route id="route_Sflow.124" edges="start R RL C1 C2 goal" />
<vehicle type="noVar" depart="446" id="Sflow.124" route="route_Sflow.124" />
<route id="route_Sflow.125" edges="start R RL C1 C2 goal" />
<vehicle type="noVar" depart="450" id="Sflow.125" route="route_Sflow.125" />
<route id="route_Sflow.126" edges="start R RL C1 C2 goal" />
<vehicle type="noVar" depart="454" id="Sflow.126" route="route_Sflow.126" />
<route id="route_Lflow.38" edges="startL LR C1 C2 goal" />
<vehicle type="noVar" depart="457" id="Lflow.38" route="route_Lflow.38" />
<route id="route_Rflow.38" edges="startR RL C1 C2 goal" />
<vehicle type="noVar" depart="457" id="Rflow.38" route="route_Rflow.38" />
<route id="route_Sflow.127" edges="start R RL C1 C2 goal" />
<vehicle type="noVar" depart="457" id="Sflow.127" route="route_Sflow.127" />
<route id="route_Sflow.128" edges="start R RL C1 C2 goal" />
<vehicle type="noVar" depart="461" id="Sflow.128" route="route_Sflow.128" />
<route id="route_Sflow.129" edges="start R RL C1 C2 goal" />
<vehicle type="noVar" depart="464" id="Sflow.129" route="route_Sflow.129" />
<route id="route_Sflow.130" edges="start R RL C1 C2 goal" />
<vehicle type="noVar" depart="468" id="Sflow.130" route="route_Sflow.130" />
<route id="route_Lflow.39" edges="startL LR C1 C2 goal" />
<vehicle type="noVar" depart="469" id="Lflow.39" route="route_Lflow.39" />
<route id="route_Rflow.39" edges="startR RL C1 C2 goal" />
<vehicle type="noVar" depart="469" id="Rflow.39" route="route_Rflow.39" />
<route id="route_Sflow.131" edges="start R RL C1 C2 goal" />
<vehicle type="noVar" depart="472" id="Sflow.131" route="route_Sflow.131" />
<route id="route_Sflow.132" edges="start R RL C1 C2 goal" />
<vehicle type="noVar" depart="475" id="Sflow.132" route="route_Sflow.132" />
<route id="route_Sflow.133" edges="start R RL C1 C2 goal" />
<vehicle type="noVar" depart="479" id="Sflow.133" route="route_Sflow.133" />
<route id="route_Lflow.40" edges="startL LR C1 C2 goal" />
<vehicle type="noVar" depart="481" id="Lflow.40" route="route_Lflow.40" />
<route id="route_Rflow.40" edges="startR RL C1 C2 goal" />
<vehicle type="noVar" depart="481" id="Rflow.40" route="route_Rflow.40" />
<route id="route_Sflow.134" edges="start R RL C1 C2 goal" />
<vehicle type="noVar" depart="482" id="Sflow.134" route="route_Sflow.134" />
<route id="route_Sflow.135" edges="start R RL C1 C2 goal" />
<vehicle type="noVar" depart="486" id="Sflow.135" route="route_Sflow.135" />
<route id="route_Sflow.136" edges="start R RL C1 C2 goal" />
<vehicle type="noVar" depart="490" id="Sflow.136" route="route_Sflow.136" />
<route id="route_Lflow.41" edges="startL LL1 LL2 goal" />
<vehicle type="noVar" depart="493" id="Lflow.41" route="route_Lflow.41" />
<route id="route_Rflow.41" edges="startR RL C1 C2 goal" />
<vehicle type="noVar" depart="493" id="Rflow.41" route="route_Rflow.41" />
<route id="route_Sflow.137" edges="start R RL C1 C2 goal" />