<?xml version="1.0" encoding="UTF-8"?>
<routes xmlns:xsi="http://www.w3.org/2001/XMLSchema-instance" xsi:noNamespaceSchemaLocation="http://sumo.dlr.de/xsd/routes_file.xsd">

<vType id="noVar" speedFactor="1.0" speedDev="0.0"/>
<route id="route_fl119_st0.0.0" edges=" 119 122" />
<vehicle depart="1" id="fl119_st0.0.0" route="route_fl119_st0.0.0" />
<route id="route_fl83_st0.0.0" edges=" 83 90 91 92 103 108 110 116 122" />
<vehicle depart="1" id="fl83_st0.0.0" route="route_fl83_st0.0.0" />
<route id="route_fl4_st0.0.0" edges=" 4 99 98 96" />
<vehicle depart="2" id="fl4_st0.0.0" route="route_fl4_st0.0.0" />
<route id="route_fl86_st0.0.0" edges=" 86 81 79 68 67 61 56 57 49 43 40 39 33 23 24 9 8 1" />
<vehicle depart="2" id="fl86_st0.0.0" route="route_fl86_st0.0.0" />
<route id="route_fl30_st0.0.0" edges=" 30 26 19 15 25 32 38 41 42 50 55 58 62 69 74 80 82 90 91 93 100" />
<vehicle depart="3" id="fl30_st0.0.0" route="route_fl30_st0.0.0" />
<route id="route_fl47_st0.0.0" edges=" 47 46 42 50 55 58 62 69 74 80 82 90 91 92 103 108 110 116 122" />
<vehicle depart="4" id="fl47_st0.0.0" route="route_fl47_st0.0.0" />
<route id="route_fl30_st0.0.1" edges=" 30 26 19 15 25 32 34" />
<vehicle depart="6" id="fl30_st0.0.1" route="route_fl30_st0.0.1" />
<route id="route_fl104_st0.0.0" edges=" 104 95 89 88 81 79 68 67 61 56 57 49 44 48" />
<vehicle depart="6" id="fl104_st0.0.0" route="route_fl104_st0.0.0" />
<route id="route_fl47_st0.0.1" edges=" 47 46 42 50 55 58 64" />
<vehicle depart="7" id="fl47_st0.0.1" route="route_fl47_st0.0.1" />
<route id="route_fl86_st0.0.1" edges=" 86 81 79 68 67 61 56 57 49 44 48" />
<vehicle depart="7" id="fl86_st0.0.1" route="route_fl86_st0.0.1" />
<route id="route_fl35_st0.0.0" edges=" 35 73 38 41 48" />
<vehicle depart="10" id="fl35_st0.0.0" route="route_fl35_st0.0.0" />
<route id="route_fl36_st0.0.0" edges=" 36 72 33 23 24 9 8 1" />
<vehicle depart="10" id="fl36_st0.0.0" route="route_fl36_st0.0.0" />
<route id="route_fl6_st0.0.0" edges=" 6 70 2" />
<vehicle depart="13" id="fl6_st0.0.0" route="route_fl6_st0.0.0" />
<route id="route_fl20_st0.0.0" edges=" 20 121 115 109 107 106 101 89 88 81 79 68 67 61 56 57 49 43 40 39 33 23 24 9 8 1" />
<vehicle depart="14" id="fl20_st0.0.0" route="route_fl20_st0.0.0" />
<route id="route_fl6_st0.0.1" edges=" 6 70 7 21 10 25 32 38 41 42 50 55 58 62 69 74 80 82 90 91 92 96" />
<vehicle depart="16" id="fl6_st0.0.1" route="route_fl6_st0.0.1" />
<route id="route_fl63_st0.0.0" edges=" 63 60" />
<vehicle depart="18" id="fl63_st0.0.0" route="route_fl63_st0.0.0" />
<route id="route_fl20_st0.0.1" edges=" 20 121 115 109 107 106 101 100" />
<vehicle depart="20" id="fl20_st0.0.1" route="route_fl20_st0.0.1" />
<route id="route_fl63_st0.0.1" edges=" 63 62 69 74 80 82 90 91 92 96" />
<vehicle depart="21" id="fl63_st0.0.1" route="route_fl63_st0.0.1" />
<route id="route_fl18_st0.0.0" edges=" 18 14 25 32 38 41 42 50 55 58 62 69 74 80 82 90 91 92 103 108 110 116 122" />
<vehicle depart="22" id="fl18_st0.0.0" route="route_fl18_st0.0.0" />
<route id="route_fl30_st0.0.2" edges=" 30 26 19 12 9 8 1" />
<vehicle depart="23" id="fl30_st0.0.2" route="route_fl30_st0.0.2" />
<route id="route_fl6_st0.0.2" edges=" 6 70 7 21 10 25 32 38 41 42 50 55 58 62 69 74 80 82 90 91 92 96" />
<vehicle depart="24" id="fl6_st0.0.2" route="route_fl6_st0.0.2" />
<route id="route_fl4_st0.0.1" edges=" 4 99 98 96" />
<vehicle depart="24" id="fl4_st0.0.1" route="route_fl4_st0.0.1" />
<route id="route_fl18_st0.0.1" edges=" 18 16 22 28 27" />
<vehicle depart="25" id="fl18_st0.0.1" route="route_fl18_st0.0.1" />
<route id="route_fl18_st0.0.2" edges=" 18 16 9 8 1" />
<vehicle depart="26" id="fl18_st0.0.2" route="route_fl18_st0.0.2" />
<route id="route_fl4_st0.0.2" edges=" 4 99 97 103 108 110 116 122" />
<vehicle depart="27" id="fl4_st0.0.2" route="route_fl4_st0.0.2" />
<route id="route_fl63_st0.0.2" edges=" 63 62 69 74 80 82 90 91 92 103 108 110 116 122" />
<vehicle depart="27" id="fl63_st0.0.2" route="route_fl63_st0.0.2" />
<route id="route_fl76_st0.0.0" edges=" 76 80 82 90 91 92 96" />
<vehicle depart="28" id="fl76_st0.0.0" route="route_fl76_st0.0.0" />
<route id="route_fl30_st0.0.3" edges=" 30 26 19 15 25 32 38 41 42 50 55 58 62 69 74 80 82 90 91 92 103 108 110 116 122" />
<vehicle depart="29" id="fl30_st0.0.3" route="route_fl30_st0.0.3" />
<route id="route_fl4_st0.0.3" edges=" 4 99 97 103 108 110 116 122" />
<vehicle depart="30" id="fl4_st0.0.3" route="route_fl4_st0.0.3" />
<route id="route_fl4_st0.0.4" edges=" 4 99 98 96" />
<vehicle depart="33" id="fl4_st0.0.4" route="route_fl4_st0.0.4" />
<route id="route_fl30_st0.0.4" edges=" 30 26 19 15 17" />
<vehicle depart="33" id="fl30_st0.0.4" route="route_fl30_st0.0.4" />
<route id="route_fl20_st0.0.2" edges=" 20 121 117" />
<vehicle depart="35" id="fl20_st0.0.2" route="route_fl20_st0.0.2" />
<route id="route_fl30_st0.0.5" edges=" 30 26 19 15 17" />
<vehicle depart="37" id="fl30_st0.0.5" route="route_fl30_st0.0.5" />
<route id="route_fl54_st0.0.0" edges=" 54 111 55 58 64" />
<vehicle depart="39" id="fl54_st0.0.0" route="route_fl54_st0.0.0" />
<route id="route_fl30_st0.0.6" edges=" 30 26 19 12 9 8 1" />
<vehicle depart="40" id="fl30_st0.0.6" route="route_fl30_st0.0.6" />
<route id="route_fl63_st0.0.3" edges=" 63 62 69 74 80 82 90 91 92 103 108 110 116 120" />
<vehicle depart="40" id="fl63_st0.0.3" route="route_fl63_st0.0.3" />
<route id="route_fl20_st0.0.3" edges=" 20 121 117" />
<vehicle depart="41" id="fl20_st0.0.3" route="route_fl20_st0.0.3" />
<route id="route_fl3_st0.0.0" edges=" 3 7 21 10 22 28 27" />
<vehicle depart="42" id="fl3_st0.0.0" route="route_fl3_st0.0.0" />
<route id="route_fl30_st0.0.7" edges=" 30 26 19 12 9 8 1" />
<vehicle depart="43" id="fl30_st0.0.7" route="route_fl30_st0.0.7" />
<route id="route_fl18_st0.0.3" edges=" 18 16 22 28 27" />
<vehicle depart="44" id="fl18_st0.0.3" route="route_fl18_st0.0.3" />
<route id="route_fl30_st0.0.8" edges=" 30 26 19 15 25 32 38 41 48" />
<vehicle depart="46" id="fl30_st0.0.8" route="route_fl30_st0.0.8" />
<route id="route_fl20_st0.0.4" edges=" 20 121 115 109 107 106 101 89 88 81 79 68 67 61 56 57 49 43 40 39 33 23 24 9 8 1" />
<vehicle depart="48" id="fl20_st0.0.4" route="route_fl20_st0.0.4" />
<route id="route_fl6_st0.0.3" edges=" 6 70 7 21 10 25 32 38 41 42 50 55 58 62 69 74 80 82 90 91 93 100" />
<vehicle depart="49" id="fl6_st0.0.3" route="route_fl6_st0.0.3" />
<route id="route_fl47_st0.0.2" edges=" 47 46 42 50 55 58 62 69 74 80 82 90 91 92 103 108 110 116 122" />
<vehicle depart="50" id="fl47_st0.0.2" route="route_fl47_st0.0.2" />
<route id="route_fl30_st0.0.9" edges=" 30 26 19 12 9 8 1" />
<vehicle depart="52" id="fl30_st0.0.9" route="route_fl30_st0.0.9" />
<route id="route_fl4_st0.0.5" edges=" 4 99 98 96" />
<vehicle depart="52" id="fl4_st0.0.5" route="route_fl4_st0.0.5" />
<route id="route_fl47_st0.0.3" edges=" 47 46 42 50 55 58 64" />
<vehicle depart="52" id="fl47_st0.0.3" route="route_fl47_st0.0.3" />
<route id="route_fl63_st0.0.4" edges=" 63 62 69 74 80 82 90 91 92 96" />
<vehicle depart="53" id="fl63_st0.0.4" route="route_fl63_st0.0.4" />
<route id="route_fl30_st0.0.10" edges=" 30 26 19 15 25 32 38 41 42 50 55 58 62 69 74 80 82 90 91 93 100" />
<vehicle depart="56" id="fl30_st0.0.10" route="route_fl30_st0.0.10" />
<route id="route_fl4_st0.0.6" edges=" 4 99 98 89 88 81 79 68 67 61 56 57 49 43 40 39 33 23 13 22 28 29" />
<vehicle depart="58" id="fl4_st0.0.6" route="route_fl4_st0.0.6" />
<route id="route_fl119_st0.0.1" edges=" 119 117" />
<vehicle depart="58" id="fl119_st0.0.1" route="route_fl119_st0.0.1" />
<route id="route_fl104_st0.0.1" edges=" 104 95 89 88 81 79 68 67 61 56 57 49 43 40 39 33 23 24 9 8 1" />
<vehicle depart="59" id="fl104_st0.0.1" route="route_fl104_st0.0.1" />
<route id="route_fl30_st0.0.11" edges=" 30 26 19 15 25 32 37" />
<vehicle depart="62" id="fl30_st0.0.11" route="route_fl30_st0.0.11" />
<route id="route_fl47_st0.0.4" edges=" 47 45 40 39 34" />
<vehicle depart="62" id="fl47_st0.0.4" route="route_fl47_st0.0.4" />
<route id="route_fl18_st0.0.4" edges=" 18 16 22 28 27" />
<vehicle depart="65" id="fl18_st0.0.4" route="route_fl18_st0.0.4" />
<route id="route_fl104_st0.0.2" edges=" 104 94 100" />
<vehicle depart="65" id="fl104_st0.0.2" route="route_fl104_st0.0.2" />
<route id="route_fl118_st0.0.0" edges=" 118 120" />
<vehicle depart="65" id="fl118_st0.0.0" route="route_fl118_st0.0.0" />
<route id="route_fl30_st0.0.12" edges=" 30 26 19 15 25 32 38 41 42 50 55 58 62 69 74 80 82 90 91 92 103 108 110 116 122" />
<vehicle depart="66" id="fl30_st0.0.12" route="route_fl30_st0.0.12" />
<route id="route_fl3_st0.0.1" edges=" 3 7 21 10 25 32 38 41 42 50 55 58 62 69 74 80 82 90 91 93 100" />
<vehicle depart="66" id="fl3_st0.0.1" route="route_fl3_st0.0.1" />
<route id="route_fl47_st0.0.5" edges=" 47 45 40 39 33 23 13 22 28 27" />
<vehicle depart="66" id="fl47_st0.0.5" route="route_fl47_st0.0.5" />
<route id="route_fl59_st0.0.0" edges=" 59 62 69 74 80 82 90 91 93 100" />
<vehicle depart="67" id="fl59_st0.0.0" route="route_fl59_st0.0.0" />
<route id="route_fl47_st0.0.6" edges=" 47 46 42 50 55 58 62 69 74 80 82 90 91 92 96" />
<vehicle depart="67" id="fl47_st0.0.6" route="route_fl47_st0.0.6" />
<route id="route_fl35_st0.0.1" edges=" 35 73 33 23 24 9 8 1" />
<vehicle depart="68" id="fl35_st0.0.1" route="route_fl35_st0.0.1" />
<route id="route_fl4_st0.0.7" edges=" 4 99 98 89 88 81 79 68 67 61 56 57 49 43 40 39 33 23 13 22 28 29" />
<vehicle depart="68" id="fl4_st0.0.7" route="route_fl4_st0.0.7" />
<route id="route_fl30_st0.0.13" edges=" 30 26 19 15 25 32 38 41 42 50 55 58 62 69 74 80 82 90 91 92 103 108 110 116 122" />
<vehicle depart="69" id="fl30_st0.0.13" route="route_fl30_st0.0.13" />
<route id="route_fl3_st0.0.2" edges=" 3 7 21 10 25 32 38 41 42 50 55 58 62 69 74 80 82 90 91 92 96" />
<vehicle depart="69" id="fl3_st0.0.2" route="route_fl3_st0.0.2" />
<route id="route_fl86_st0.0.2" edges=" 86 90 91 92 103 108 110 116 122" />
<vehicle depart="71" id="fl86_st0.0.2" route="route_fl86_st0.0.2" />
<route id="route_fl47_st0.0.7" edges=" 47 46 42 50 55 58 62 69 74 80 82 90 91 92 103 108 110 116 122" />
<vehicle depart="71" id="fl47_st0.0.7" route="route_fl47_st0.0.7" />
<route id="route_fl30_st0.0.14" edges=" 30 26 19 12 9 8 1" />
<vehicle depart="72" id="fl30_st0.0.14" route="route_fl30_st0.0.14" />
<route id="route_fl4_st0.0.8" edges=" 4 99 97 103 108 110 116 122" />
<vehicle depart="73" id="fl4_st0.0.8" route="route_fl4_st0.0.8" />
<route id="route_fl30_st0.0.15" edges=" 30 26 19 15 25 32 38 41 42 50 55 58 62 69 74 80 82 90 91 92 103 108 110 116 122" />
<vehicle depart="74" id="fl30_st0.0.15" route="route_fl30_st0.0.15" />
<route id="route_fl54_st0.0.1" edges=" 54 111 55 58 62 69 74 80 82 90 91 92 103 108 110 116 122" />
<vehicle depart="75" id="fl54_st0.0.1" route="route_fl54_st0.0.1" />
<route id="route_fl18_st0.0.5" edges=" 18 16 22 28 27" />
<vehicle depart="76" id="fl18_st0.0.5" route="route_fl18_st0.0.5" />
<route id="route_fl119_st0.0.2" edges=" 119 117" />
<vehicle depart="77" id="fl119_st0.0.2" route="route_fl119_st0.0.2" />
<route id="route_fl20_st0.0.5" edges=" 20 121 115 109 107 106 101 89 88 81 79 68 67 61 56 57 49 43 40 39 33 23 24 9 8 1" />
<vehicle depart="77" id="fl20_st0.0.5" route="route_fl20_st0.0.5" />
<route id="route_fl35_st0.0.2" edges=" 35 73 38 41 42 50 55 58 62 69 74 80 82 90 91 92 96" />
<vehicle depart="79" id="fl35_st0.0.2" route="route_fl35_st0.0.2" />
<route id="route_fl4_st0.0.9" edges=" 4 99 98 89 88 81 79 68 67 61 56 57 49 44 48" />
<vehicle depart="82" id="fl4_st0.0.9" route="route_fl4_st0.0.9" />
<route id="route_fl47_st0.0.8" edges=" 47 45 40 39 33 23 24 9 8 1" />
<vehicle depart="83" id="fl47_st0.0.8" route="route_fl47_st0.0.8" />
<route id="route_fl59_st0.0.1" edges=" 59 62 69 74 80 82 90 91 92 103 108 110 116 122" />
<vehicle depart="83" id="fl59_st0.0.1" route="route_fl59_st0.0.1" />
<route id="route_fl3_st0.0.3" edges=" 3 7 21 10 25 32 34" />
<vehicle depart="85" id="fl3_st0.0.3" route="route_fl3_st0.0.3" />
<route id="route_fl30_st0.0.16" edges=" 30 26 19 15 25 32 38 41 42 50 55 58 62 69 74 80 82 90 91 92 103 108 110 116 122" />
<vehicle depart="85" id="fl30_st0.0.16" route="route_fl30_st0.0.16" />
<route id="route_fl47_st0.0.9" edges=" 47 45 40 39 34" />
<vehicle depart="86" id="fl47_st0.0.9" route="route_fl47_st0.0.9" />
<route id="route_fl119_st0.0.3" edges=" 119 117" />
<vehicle depart="92" id="fl119_st0.0.3" route="route_fl119_st0.0.3" />
<route id="route_fl4_st0.0.10" edges=" 4 99 98 89 88 81 79 68 67 61 56 57 49 43 40 39 33 23 24 9 8 1" />
<vehicle depart="92" id="fl4_st0.0.10" route="route_fl4_st0.0.10" />
<route id="route_fl83_st0.0.1" edges=" 83 90 91 92 103 108 110 116 122" />
<vehicle depart="93" id="fl83_st0.0.1" route="route_fl83_st0.0.1" />
<route id="route_fl104_st0.0.3" edges=" 104 95 89 88 81 79 68 67 61 56 57 49 43 40 39 33 23 13 22 28 29" />
<vehicle depart="93" id="fl104_st0.0.3" route="route_fl104_st0.0.3" />
<route id="route_fl20_st0.0.6" edges=" 20 121 115 109 107 106 101 89 88 81 79 68 67 61 56 57 49 43 40 39 33 23 24 9 8 1" />
<vehicle depart="95" id="fl20_st0.0.6" route="route_fl20_st0.0.6" />
<route id="route_fl104_st0.0.4" edges=" 104 95 89 88 81 79 68 67 61 56 57 49 43 40 39 33 23 24 9 8 1" />
<vehicle depart="96" id="fl104_st0.0.4" route="route_fl104_st0.0.4" />
<route id="route_fl4_st0.0.11" edges=" 4 99 98 96" />
<vehicle depart="96" id="fl4_st0.0.11" route="route_fl4_st0.0.11" />
<route id="route_fl4_st0.0.12" edges=" 4 99 98 96" />
<vehicle depart="99" id="fl4_st0.0.12" route="route_fl4_st0.0.12" />
<route id="route_fl104_st0.0.5" edges=" 104 94 100" />
<vehicle depart="99" id="fl104_st0.0.5" route="route_fl104_st0.0.5" />
<route id="route_fl30_st0.0.17" edges=" 30 26 19 15 25 32 38 41 42 50 55 58 62 69 74 80 82 90 91 93 100" />
<vehicle depart="101" id="fl30_st0.0.17" route="route_fl30_st0.0.17" />
<route id="route_fl3_st0.0.4" edges=" 3 7 21 10 22 28 27" />
<vehicle depart="104" id="fl3_st0.0.4" route="route_fl3_st0.0.4" />
<route id="route_fl30_st0.0.18" edges=" 30 26 19 15 17" />
<vehicle depart="107" id="fl30_st0.0.18" route="route_fl30_st0.0.18" />
<route id="route_fl3_st0.0.5" edges=" 3 7 21 10 25 32 38 41 42 50 55 58 62 69 74 80 82 90 91 93 100" />
<vehicle depart="107" id="fl3_st0.0.5" route="route_fl3_st0.0.5" />
<route id="route_fl30_st0.0.19" edges=" 30 26 19 15 25 32 38 41 42 50 55 58 62 69 74 80 82 90 91 92 103 108 110 116 122" />
<vehicle depart="108" id="fl30_st0.0.19" route="route_fl30_st0.0.19" />
<route id="route_fl47_st0.0.10" edges=" 47 46 42 50 55 58 62 69 74 80 82 90 91 92 103 108 110 116 122" />
<vehicle depart="109" id="fl47_st0.0.10" route="route_fl47_st0.0.10" />
<route id="route_fl18_st0.0.6" edges=" 18 14 25 32 38 41 42 50 55 58 62 69 74 80 82 90 91 92 103 108 110 116 122" />
<vehicle depart="110" id="fl18_st0.0.6" route="route_fl18_st0.0.6" />
<route id="route_fl30_st0.0.20" edges=" 30 26 19 15 25 32 38 41 42 50 55 58 62 69 74 80 82 90 91 93 100" />
<vehicle depart="111" id="fl30_st0.0.20" route="route_fl30_st0.0.20" />
<route id="route_fl3_st0.0.6" edges=" 3 7 21 10 25 32 38 41 42 50 55 58 62 69 74 80 82 90 91 92 103 108 110 116 122" />
<vehicle depart="111" id="fl3_st0.0.6" route="route_fl3_st0.0.6" />
<route id="route_fl104_st0.0.6" edges=" 104 94 100" />
<vehicle depart="113" id="fl104_st0.0.6" route="route_fl104_st0.0.6" />
<route id="route_fl30_st0.0.23" edges=" 30 26 19 15 17" />
<vehicle depart="113" id="fl30_st0.0.23" route="route_fl30_st0.0.23" />
<route id="route_fl78_st0.0.0" edges=" 78 80 82 90 91 92 103 108 110 116 122" />
<vehicle depart="113" id="fl78_st0.0.0" route="route_fl78_st0.0.0" />
<route id="route_fl30_st0.0.21" edges=" 30 26 19 15 25 32 37" />
<vehicle depart="114" id="fl30_st0.0.21" route="route_fl30_st0.0.21" />
<route id="route_fl30_st0.0.22" edges=" 30 26 19 15 25 32 37" />
<vehicle depart="117" id="fl30_st0.0.22" route="route_fl30_st0.0.22" />
<route id="route_fl30_st0.0.25" edges=" 30 26 19 12 9 8 1" />
<vehicle depart="117" id="fl30_st0.0.25" route="route_fl30_st0.0.25" />
<route id="route_fl4_st0.0.13" edges=" 4 99 98 89 88 81 79 68 67 61 56 57 49 43 40 39 34" />
<vehicle depart="117" id="fl4_st0.0.13" route="route_fl4_st0.0.13" />
<route id="route_fl30_st0.0.28" edges=" 30 27" />
<vehicle depart="119" id="fl30_st0.0.28" route="route_fl30_st0.0.28" />
<route id="route_fl30_st0.0.24" edges=" 30 26 19 15 25 32 38 41 42 50 53" />
<vehicle depart="120" id="fl30_st0.0.24" route="route_fl30_st0.0.24" />
<route id="route_fl30_st0.0.26" edges=" 30 26 19 15 17" />
<vehicle depart="120" id="fl30_st0.0.26" route="route_fl30_st0.0.26" />
<route id="route_fl4_st0.0.14" edges=" 4 99 98 89 88 81 79 68 67 61 56 57 49 43 40 39 33 23 24 9 8 1" />
<vehicle depart="120" id="fl4_st0.0.14" route="route_fl4_st0.0.14" />
<route id="route_fl3_st0.0.7" edges=" 3 7 21 10 22 28 27" />
<vehicle depart="122" id="fl3_st0.0.7" route="route_fl3_st0.0.7" />
<route id="route_fl30_st0.0.27" edges=" 30 26 19 15 25 32 38 41 42 50 55 58 62 69 74 80 82 90 91 92 103 108 110 116 122" />
<vehicle depart="123" id="fl30_st0.0.27" route="route_fl30_st0.0.27" />
<route id="route_fl76_st0.0.1" edges=" 76 80 82 90 91 92 103 108 110 116 120" />
<vehicle depart="123" id="fl76_st0.0.1" route="route_fl76_st0.0.1" />
<route id="route_fl18_st0.0.7" edges=" 18 16 22 28 29" />
<vehicle depart="123" id="fl18_st0.0.7" route="route_fl18_st0.0.7" />
<route id="route_fl104_st0.0.7" edges=" 104 95 89 88 81 79 68 67 61 56 57 49 43 40 39 33 23 13 22 28 27" />
<vehicle depart="125" id="fl104_st0.0.7" route="route_fl104_st0.0.7" />
<route id="route_fl30_st0.0.29" edges=" 30 26 19 15 25 32 38 41 42 50 55 58 62 69 74 80 82 90 91 92 103 108 110 116 122" />
<vehicle depart="126" id="fl30_st0.0.29" route="route_fl30_st0.0.29" />
<route id="route_fl30_st0.0.31" edges=" 30 26 19 15 17" />
<vehicle depart="126" id="fl30_st0.0.31" route="route_fl30_st0.0.31" />
<route id="route_fl119_st0.0.4" edges=" 119 117" />
<vehicle depart="126" id="fl119_st0.0.4" route="route_fl119_st0.0.4" />
<route id="route_fl83_st0.0.2" edges=" 83 90 91 93 100" />
<vehicle depart="126" id="fl83_st0.0.2" route="route_fl83_st0.0.2" />
<route id="route_fl118_st0.0.1" edges=" 118 120" />
<vehicle depart="127" id="fl118_st0.0.1" route="route_fl118_st0.0.1" />
<route id="route_fl18_st0.0.8" edges=" 18 14 25 32 38 41 48" />
<vehicle depart="128" id="fl18_st0.0.8" route="route_fl18_st0.0.8" />
<route id="route_fl30_st0.0.30" edges=" 30 26 19 15 25 32 38 41 42 50 55 58 62 69 74 80 82 90 91 93 100" />
<vehicle depart="129" id="fl30_st0.0.30" route="route_fl30_st0.0.30" />
<route id="route_fl63_st0.0.5" edges=" 63 60" />
<vehicle depart="129" id="fl63_st0.0.5" route="route_fl63_st0.0.5" />
<route id="route_fl4_st0.0.15" edges=" 4 99 98 96" />
<vehicle depart="131" id="fl4_st0.0.15" route="route_fl4_st0.0.15" />
<route id="route_fl30_st0.0.32" edges=" 30 26 19 15 25 32 34" />
<vehicle depart="132" id="fl30_st0.0.32" route="route_fl30_st0.0.32" />
<route id="route_fl47_st0.0.11" edges=" 47 45 40 39 33 23 13 22 28 29" />
<vehicle depart="132" id="fl47_st0.0.11" route="route_fl47_st0.0.11" />
<route id="route_fl3_st0.0.8" edges=" 3 7 21 10 25 32 38 41 48" />
<vehicle depart="132" id="fl3_st0.0.8" route="route_fl3_st0.0.8" />
<route id="route_fl119_st0.0.5" edges=" 119 117" />
<vehicle depart="133" id="fl119_st0.0.5" route="route_fl119_st0.0.5" />
<route id="route_fl30_st0.0.34" edges=" 30 26 19 12 9 8 1" />
<vehicle depart="134" id="fl30_st0.0.34" route="route_fl30_st0.0.34" />
<route id="route_fl20_st0.0.7" edges=" 20 121 115 109 107 106 101 89 88 81 79 68 67 61 56 57 49 43 40 39 33 23 13 22 28 29" />
<vehicle depart="134" id="fl20_st0.0.7" route="route_fl20_st0.0.7" />
<route id="route_fl6_st0.0.4" edges=" 6 70 7 21 10 22 28 29" />
<vehicle depart="134" id="fl6_st0.0.4" route="route_fl6_st0.0.4" />
<route id="route_fl30_st0.0.33" edges=" 30 26 19 15 25 32 38 41 42 50 55 58 62 69 74 80 82 90 91 92 103 108 110 116 122" />
<vehicle depart="135" id="fl30_st0.0.33" route="route_fl30_st0.0.33" />
<route id="route_fl71_st0.0.0" edges=" 71 1" />
<vehicle depart="135" id="fl71_st0.0.0" route="route_fl71_st0.0.0" />
<route id="route_fl119_st0.0.6" edges=" 119 117" />
<vehicle depart="136" id="fl119_st0.0.6" route="route_fl119_st0.0.6" />
<route id="route_fl78_st0.0.1" edges=" 78 68 67 61 56 57 49 43 40 39 33 23 13 22 28 29" />
<vehicle depart="136" id="fl78_st0.0.1" route="route_fl78_st0.0.1" />
<route id="route_fl6_st0.0.5" edges=" 6 70 1" />
<vehicle depart="137" id="fl6_st0.0.5" route="route_fl6_st0.0.5" />
<route id="route_fl30_st0.0.35" edges=" 30 26 19 15 25 32 38 41 42 50 55 58 62 69 74 80 82 90 91 93 100" />
<vehicle depart="138" id="fl30_st0.0.35" route="route_fl30_st0.0.35" />
<route id="route_fl104_st0.0.8" edges=" 104 95 89 88 81 79 68 67 61 56 57 49 43 40 39 33 23 13 22 28 27" />
<vehicle depart="138" id="fl104_st0.0.8" route="route_fl104_st0.0.8" />
<route id="route_fl3_st0.0.9" edges=" 3 7 21 10 25 32 38 41 42 50 55 58 62 69 74 80 82 90 91 93 100" />
<vehicle depart="138" id="fl3_st0.0.9" route="route_fl3_st0.0.9" />
<route id="route_fl104_st0.0.9" edges=" 104 94 100" />
<vehicle depart="138" id="fl104_st0.0.9" route="route_fl104_st0.0.9" />
<route id="route_fl18_st0.0.9" edges=" 18 14 25 32 38 41 42 50 55 58 62 69 74 80 82 90 91 93 100" />
<vehicle depart="138" id="fl18_st0.0.9" route="route_fl18_st0.0.9" />
<route id="route_fl18_st0.0.10" edges=" 18 16 22 28 29" />
<vehicle depart="140" id="fl18_st0.0.10" route="route_fl18_st0.0.10" />
<route id="route_fl30_st0.0.36" edges=" 30 26 19 15 25 32 38 41 42 50 55 58 62 69 74 80 82 90 91 93 100" />
<vehicle depart="142" id="fl30_st0.0.36" route="route_fl30_st0.0.36" />
<route id="route_fl30_st0.0.37" edges=" 30 26 19 15 25 32 38 41 42 50 55 58 62 69 74 80 82 90 91 92 103 108 110 116 122" />
<vehicle depart="145" id="fl30_st0.0.37" route="route_fl30_st0.0.37" />
<route id="route_fl35_st0.0.3" edges=" 35 73 38 41 42 50 55 58 62 69 74 80 82 90 91 92 103 108 110 116 122" />
<vehicle depart="145" id="fl35_st0.0.3" route="route_fl35_st0.0.3" />
<route id="route_fl20_st0.0.8" edges=" 20 121 115 109 107 106 101 89 88 81 79 68 67 61 56 57 49 43 40 39 33 23 13 22 28 29" />
<vehicle depart="145" id="fl20_st0.0.8" route="route_fl20_st0.0.8" />
<route id="route_fl104_st0.0.10" edges=" 104 95 89 88 81 79 68 67 61 64" />
<vehicle depart="145" id="fl104_st0.0.10" route="route_fl104_st0.0.10" />
<route id="route_fl30_st0.0.38" edges=" 30 26 19 15 25 32 38 41 42 50 55 58 62 69 74 80 82 90 91 92 96" />
<vehicle depart="148" id="fl30_st0.0.38" route="route_fl30_st0.0.38" />
<route id="route_fl118_st0.0.2" edges=" 118 115 109 107 106 101 89 88 81 79 68 67 61 56 57 49 43 40 39 33 23 24 9 8 1" />
<vehicle depart="148" id="fl118_st0.0.2" route="route_fl118_st0.0.2" />
<route id="route_fl4_st0.0.16" edges=" 4 99 98 89 88 81 79 68 67 61 56 57 49 43 40 39 33 23 24 9 8 1" />
<vehicle depart="148" id="fl4_st0.0.16" route="route_fl4_st0.0.16" />
<route id="route_fl83_st0.0.3" edges=" 83 90 91 92 103 108 110 116 122" />
<vehicle depart="152" id="fl83_st0.0.3" route="route_fl83_st0.0.3" />
<route id="route_fl47_st0.0.12" edges=" 47 45 40 39 33 23 24 9 8 5" />
<vehicle depart="152" id="fl47_st0.0.12" route="route_fl47_st0.0.12" />
<route id="route_fl59_st0.0.2" edges=" 59 64" />
<vehicle depart="156" id="fl59_st0.0.2" route="route_fl59_st0.0.2" />
<route id="route_fl63_st0.0.6" edges=" 63 62 69 74 80 82 90 91 92 103 108 110 116 122" />
<vehicle depart="157" id="fl63_st0.0.6" route="route_fl63_st0.0.6" />
<route id="route_fl3_st0.0.10" edges=" 3 7 21 10 25 32 38 41 42 50 53" />
<vehicle depart="157" id="fl3_st0.0.10" route="route_fl3_st0.0.10" />
<route id="route_fl47_st0.0.13" edges=" 47 45 40 39 33 23 13 22 28 29" />
<vehicle depart="158" id="fl47_st0.0.13" route="route_fl47_st0.0.13" />
<route id="route_fl104_st0.0.11" edges=" 104 94 100" />
<vehicle depart="159" id="fl104_st0.0.11" route="route_fl104_st0.0.11" />
<route id="route_fl20_st0.0.9" edges=" 20 121 115 109 107 106 102 96" />
<vehicle depart="159" id="fl20_st0.0.9" route="route_fl20_st0.0.9" />
<route id="route_fl63_st0.0.7" edges=" 63 62 69 74 80 82 90 91 92 96" />
<vehicle depart="160" id="fl63_st0.0.7" route="route_fl63_st0.0.7" />
<route id="route_fl35_st0.0.4" edges=" 35 73 37" />
<vehicle depart="161" id="fl35_st0.0.4" route="route_fl35_st0.0.4" />
<route id="route_fl59_st0.0.3" edges=" 59 64" />
<vehicle depart="161" id="fl59_st0.0.3" route="route_fl59_st0.0.3" />
<route id="route_fl20_st0.0.10" edges=" 20 121 115 109 107 106 101 89 88 81 79 68 67 61 56 57 49 44 48" />
<vehicle depart="163" id="fl20_st0.0.10" route="route_fl20_st0.0.10" />
<route id="route_fl30_st0.0.39" edges=" 30 26 19 15 25 32 38 41 48" />
<vehicle depart="164" id="fl30_st0.0.39" route="route_fl30_st0.0.39" />
<route id="route_fl83_st0.0.4" edges=" 83 90 91 92 103 108 110 116 122" />
<vehicle depart="164" id="fl83_st0.0.4" route="route_fl83_st0.0.4" />
<route id="route_fl30_st0.0.40" edges=" 30 26 19 15 25 32 38 41 48" />
<vehicle depart="167" id="fl30_st0.0.40" route="route_fl30_st0.0.40" />
<route id="route_fl30_st0.0.41" edges=" 30 26 19 15 25 32 38 41 42 50 55 58 62 69 74 80 82 90 91 92 103 108 110 116 122" />
<vehicle depart="171" id="fl30_st0.0.41" route="route_fl30_st0.0.41" />
<route id="route_fl4_st0.0.17" edges=" 4 99 98 89 88 81 79 68 67 61 56 57 49 43 40 39 33 23 24 9 8 1" />
<vehicle depart="173" id="fl4_st0.0.17" route="route_fl4_st0.0.17" />
<route id="route_fl30_st0.0.42" edges=" 30 26 19 15 25 32 38 41 42 50 55 58 62 69 74 80 82 90 91 92 103 108 110 116 122" />
<vehicle depart="174" id="fl30_st0.0.42" route="route_fl30_st0.0.42" />
<route id="route_fl3_st0.0.11" edges=" 3 7 21 10 22 28 27" />
<vehicle depart="176" id="fl3_st0.0.11" route="route_fl3_st0.0.11" />
<route id="route_fl30_st0.0.45" edges=" 30 26 19 12 9 8 1" />
<vehicle depart="178" id="fl30_st0.0.45" route="route_fl30_st0.0.45" />
<route id="route_fl47_st0.0.14" edges=" 47 45 40 39 33 23 13 22 28 27" />
<vehicle depart="179" id="fl47_st0.0.14" route="route_fl47_st0.0.14" />
<route id="route_fl119_st0.0.7" edges=" 119 117" />
<vehicle depart="179" id="fl119_st0.0.7" route="route_fl119_st0.0.7" />
<route id="route_fl54_st0.0.2" edges=" 54 111 55 58 62 69 74 80 82 90 91 92 103 108 110 116 122" />
<vehicle depart="180" id="fl54_st0.0.2" route="route_fl54_st0.0.2" />
<route id="route_fl30_st0.0.46" edges=" 30 26 19 12 9 8 1" />
<vehicle depart="181" id="fl30_st0.0.46" route="route_fl30_st0.0.46" />
<route id="route_fl30_st0.0.47" edges=" 30 26 19 12 9 8 1" />
<vehicle depart="184" id="fl30_st0.0.47" route="route_fl30_st0.0.47" />
<route id="route_fl20_st0.0.11" edges=" 20 121 115 109 107 106 101 89 88 87" />
<vehicle depart="184" id="fl20_st0.0.11" route="route_fl20_st0.0.11" />
<route id="route_fl4_st0.0.18" edges=" 4 99 98 96" />
<vehicle depart="184" id="fl4_st0.0.18" route="route_fl4_st0.0.18" />
<route id="route_fl18_st0.0.11" edges=" 18 16 22 28 29" />
<vehicle depart="185" id="fl18_st0.0.11" route="route_fl18_st0.0.11" />
<route id="route_fl3_st0.0.12" edges=" 3 5" />
<vehicle depart="185" id="fl3_st0.0.12" route="route_fl3_st0.0.12" />
<route id="route_fl30_st0.0.48" edges=" 30 26 19 12 9 8 1" />
<vehicle depart="187" id="fl30_st0.0.48" route="route_fl30_st0.0.48" />
<route id="route_fl4_st0.0.19" edges=" 4 99 98 96" />
<vehicle depart="187" id="fl4_st0.0.19" route="route_fl4_st0.0.19" />
<route id="route_fl104_st0.0.12" edges=" 104 95 89 88 84" />
<vehicle depart="188" id="fl104_st0.0.12" route="route_fl104_st0.0.12" />
<route id="route_fl119_st0.0.8" edges=" 119 117" />
<vehicle depart="189" id="fl119_st0.0.8" route="route_fl119_st0.0.8" />
<route id="route_fl36_st0.0.1" edges=" 36 72 33 23 24 9 8 1" />
<vehicle depart="189" id="fl36_st0.0.1" route="route_fl36_st0.0.1" />
<route id="route_fl30_st0.0.49" edges=" 30 26 19 15 17" />
<vehicle depart="190" id="fl30_st0.0.49" route="route_fl30_st0.0.49" />
<route id="route_fl4_st0.0.20" edges=" 4 99 98 89 88 81 79 68 67 61 56 57 49 43 40 39 33 23 24 9 8 1" />
<vehicle depart="191" id="fl4_st0.0.20" route="route_fl4_st0.0.20" />
<route id="route_fl36_st0.0.2" edges=" 36 72 38 41 42 50 55 58 62 69 74 80 82 90 91 92 96" />
<vehicle depart="192" id="fl36_st0.0.2" route="route_fl36_st0.0.2" />
<route id="route_fl35_st0.0.5" edges=" 35 73 33 23 13 22 28 29" />
<vehicle depart="192" id="fl35_st0.0.5" route="route_fl35_st0.0.5" />
<route id="route_fl30_st0.0.50" edges=" 30 26 19 12 9 8 1" />
<vehicle depart="193" id="fl30_st0.0.50" route="route_fl30_st0.0.50" />
<route id="route_fl4_st0.0.21" edges=" 4 99 97 103 108 110 116 122" />
<vehicle depart="194" id="fl4_st0.0.21" route="route_fl4_st0.0.21" />
<route id="route_fl30_st0.0.43" edges=" 30 26 19 15 25 32 38 41 42 50 55 58 64" />
<vehicle depart="195" id="fl30_st0.0.43" route="route_fl30_st0.0.43" />
<route id="route_fl47_st0.0.15" edges=" 47 45 40 39 33 23 24 9 8 1" />
<vehicle depart="195" id="fl47_st0.0.15" route="route_fl47_st0.0.15" />
<route id="route_fl119_st0.0.9" edges=" 119 115 109 107 106 101 100" />
<vehicle depart="196" id="fl119_st0.0.9" route="route_fl119_st0.0.9" />
<route id="route_fl47_st0.0.16" edges=" 47 46 42 50 55 58 62 69 74 80 82 90 91 92 103 108 110 116 122" />
<vehicle depart="197" id="fl47_st0.0.16" route="route_fl47_st0.0.16" />
<route id="route_fl3_st0.0.13" edges=" 3 7 21 10 25 32 37" />
<vehicle depart="197" id="fl3_st0.0.13" route="route_fl3_st0.0.13" />
<route id="route_fl30_st0.0.53" edges=" 30 26 19 15 17" />
<vehicle depart="198" id="fl30_st0.0.53" route="route_fl30_st0.0.53" />
<route id="route_fl52_st0.0.0" edges=" 52 112 55 58 64" />
<vehicle depart="198" id="fl52_st0.0.0" route="route_fl52_st0.0.0" />
<route id="route_fl30_st0.0.44" edges=" 30 26 19 15 25 32 38 41 48" />
<vehicle depart="199" id="fl30_st0.0.44" route="route_fl30_st0.0.44" />
<route id="route_fl18_st0.0.12" edges=" 18 16 22 28 27" />
<vehicle depart="201" id="fl18_st0.0.12" route="route_fl18_st0.0.12" />