<?xml version="1.0" encoding="UTF-8"?>

<!-- generated on 2022-05-17 15:51:42 by Eclipse SUMO jtrrouter Version 1.12.0
<configuration xmlns:xsi="http://www.w3.org/2001/XMLSchema-instance" xsi:noNamespaceSchemaLocation="http://sumo.dlr.de/xsd/jtrrouterConfiguration.xsd">

    <input>
        <net-file value="networks/stalbert/stalbert_fixed.net.xml"/>
        <route-files value="networks/stalbert/stalbert_8-9pm_fixed.flows.xml"/>
        <turn-ratio-files value="networks/stalbert/stalbert_8-9pm_fixed.turns.xml"/>
    </input>

    <output>
        <output-file value="networks/stalbert/stalbert_8-9pm_fixed_jtr_44.rou.xml"/>
    </output>

    <processing>
        <no-internal-links value="false"/>
        <randomize-flows value="true"/>
        <repair value="true"/>
        <accept-all-destinations value="true"/>
    </processing>

    <defaults>
        <departlane value="best"/>
    </defaults>

    <time>
        <begin value="0"/>
        <end value="3600"/>
    </time>

    <random_number>
        <seed value="44"/>
    </random_number>

</configuration>
-->

<routes xmlns:xsi="http://www.w3.org/2001/XMLSchema-instance" xsi:noNamespaceSchemaLocation="http://sumo.dlr.de/xsd/routes_file.xsd">
    <vehicle id="fl30_st0.0.0" depart="0.52" departLane="best" color="68,242,219">
        <route edges="30 27"/>
    </vehicle>
    <vehicle id="fl31_st0.0.0" depart="1.77" departLane="best" color="68,242,219">
        <route edges="31 26 19 15 25 32 38 41 42 50 55 58 62 69 74 80 82 90 91 93 100"/>
    </vehicle>
    <vehicle id="fl47_st0.0.0" depart="4.19" departLane="best" color="68,242,219">
        <route edges="47 45 40 39 33 23 24 9 8 1"/>
    </vehicle>
    <vehicle id="fl36_st0.0.0" depart="4.85" departLane="best" color="68,242,219">
        <route edges="36 72 33 23 13 22 28 27"/>
    </vehicle>
    <vehicle id="fl83_st0.0.0" depart="4.85" departLane="best" color="68,242,219">
        <route edges="83 90 91 92 103 108 110 116 122"/>
    </vehicle>
    <vehicle id="fl4_st0.0.0" depart="5.00" departLane="best" color="68,242,219">
        <route edges="4 99 98 89 88 81 79 68 67 61 56 57 51"/>
    </vehicle>
    <vehicle id="fl20_st0.0.0" depart="7.12" departLane="best" color="68,242,219">
        <route edges="20 121 120"/>
    </vehicle>
    <vehicle id="fl20_st0.0.1" depart="8.21" departLane="best" color="68,242,219">
        <route edges="20 121 115 109 107 106 101 89 88 81 79 68 67 61 56 57 51"/>
    </vehicle>
    <vehicle id="fl30_st0.0.1" depart="10.53" departLane="best" color="68,242,219">
        <route edges="30 26 19 15 25 32 38 41 42 50 53"/>
    </vehicle>
    <vehicle id="fl4_st0.0.1" depart="10.94" departLane="best" color="68,242,219">
        <route edges="4 99 98 89 88 87"/>
    </vehicle>
    <vehicle id="fl30_st0.0.2" depart="11.49" departLane="best" color="68,242,219">
        <route edges="30 26 19 15 25 32 38 41 42 50 55 58 62 69 74 80 82 90 91 92 96"/>
    </vehicle>
    <vehicle id="fl4_st0.0.2" depart="15.71" departLane="best" color="68,242,219">
        <route edges="4 99 98 89 88 84"/>
    </vehicle>
    <vehicle id="fl47_st0.0.1" depart="17.06" departLane="best" color="68,242,219">
        <route edges="47 45 40 39 33 23 13 22 28 27"/>
    </vehicle>
    <vehicle id="fl18_st0.0.0" depart="18.04" departLane="best" color="68,242,219">
        <route edges="18 14 25 32 38 41 42 50 51"/>
    </vehicle>
    <vehicle id="fl30_st0.0.3" depart="20.15" departLane="best" color="68,242,219">
        <route edges="30 26 19 15 25 32 38 41 42 50 55 58 62 69 74 80 82 90 91 92 96"/>
    </vehicle>
    <vehicle id="fl71_st0.0.0" depart="20.47" departLane="best" color="68,242,219">
        <route edges="71 1"/>
    </vehicle>
    <vehicle id="fl104_st0.0.0" depart="20.92" departLane="best" color="68,242,219">
        <route edges="104 95 89 88 81 79 68 67 61 56 57 49 43 40 39 33 23 24 9 8 1"/>
    </vehicle>
    <vehicle id="fl18_st0.0.1" depart="21.02" departLane="best" color="68,242,219">
        <route edges="18 14 25 32 38 41 42 50 55 58 62 69 74 80 82 90 91 92 103 108 110 116 122"/>
    </vehicle>
    <vehicle id="fl30_st0.0.4" depart="21.82" departLane="best" color="68,242,219">
        <route edges="30 26 19 12 9 8 1"/>
    </vehicle>
    <vehicle id="fl63_st0.0.0" depart="23.36" departLane="best" color="68,242,219">
        <route edges="63 62 69 74 80 82 90 91 92 103 108 110 116 122"/>
    </vehicle>
    <vehicle id="fl30_st0.0.5" depart="23.53" departLane="best" color="68,242,219">
        <route edges="30 26 19 15 25 32 38 41 42 50 55 58 62 69 74 80 82 90 91 92 103 108 110 116 120"/>
    </vehicle>
    <vehicle id="fl30_st0.0.6" depart="27.29" departLane="best" color="68,242,219">
        <route edges="30 26 19 15 25 32 38 41 48"/>
    </vehicle>
    <vehicle id="fl35_st0.0.0" depart="28.16" departLane="best" color="68,242,219">
        <route edges="35 73 38 41 42 50 55 58 62 69 74 80 82 90 91 92 103 108 110 116 122"/>
    </vehicle>
    <vehicle id="fl30_st0.0.7" depart="30.14" departLane="best" color="68,242,219">
        <route edges="30 26 19 15 25 32 38 41 42 50 55 58 62 69 74 80 82 90 91 93 100"/>
    </vehicle>
    <vehicle id="fl104_st0.0.1" depart="30.35" departLane="best" color="68,242,219">
        <route edges="104 94 100"/>
    </vehicle>
    <vehicle id="fl30_st0.0.8" depart="31.85" departLane="best" color="68,242,219">
        <route edges="30 26 19 15 25 32 37"/>
    </vehicle>
    <vehicle id="fl18_st0.0.2" depart="33.18" departLane="best" color="68,242,219">
        <route edges="18 14 25 32 38 41 42 50 55 58 62 69 74 80 82 90 91 92 103 108 110 116 120"/>
    </vehicle>
    <vehicle id="fl3_st0.0.0" depart="33.30" departLane="best" color="68,242,219">
        <route edges="3 7 21 10 25 32 38 41 42 50 55 58 62 69 74 80 82 90 91 92 103 108 110 116 122"/>
    </vehicle>
    <vehicle id="fl3_st0.0.1" depart="34.47" departLane="best" color="68,242,219">
        <route edges="3 7 21 10 22 28 27"/>
    </vehicle>
    <vehicle id="fl20_st0.0.2" depart="34.56" departLane="best" color="68,242,219">
        <route edges="20 121 120"/>
    </vehicle>
    <vehicle id="fl4_st0.0.3" depart="35.97" departLane="best" color="68,242,219">
        <route edges="4 99 98 89 88 81 79 68 67 61 56 57 49 43 40 39 33 23 24 9 8 2"/>
    </vehicle>
    <vehicle id="fl104_st0.0.2" depart="36.09" departLane="best" color="68,242,219">
        <route edges="104 95 89 88 81 79 68 67 61 56 57 49 43 40 39 33 23 13 22 28 29"/>
    </vehicle>
    <vehicle id="fl104_st0.0.3" depart="36.26" departLane="best" color="68,242,219">
        <route edges="104 94 100"/>
    </vehicle>
    <vehicle id="fl47_st0.0.2" depart="37.31" departLane="best" color="68,242,219">
        <route edges="47 46 42 50 55 58 60"/>
    </vehicle>
    <vehicle id="fl30_st0.0.9" depart="37.67" departLane="best" color="68,242,219">
        <route edges="30 27"/>
    </vehicle>
    <vehicle id="fl47_st0.0.3" depart="38.15" departLane="best" color="68,242,219">
        <route edges="47 46 42 50 55 58 62 69 74 80 82 90 91 93 100"/>
    </vehicle>
    <vehicle id="fl20_st0.0.3" depart="38.96" departLane="best" color="68,242,219">
        <route edges="20 121 115 109 107 106 101 100"/>
    </vehicle>
    <vehicle id="fl86_st0.0.0" depart="39.34" departLane="best" color="68,242,219">
        <route edges="86 84"/>
    </vehicle>
    <vehicle id="fl20_st0.0.4" depart="40.03" departLane="best" color="68,242,219">
        <route edges="20 121 115 109 107 106 101 89 88 81 79 68 67 61 56 57 49 43 40 39 33 23 24 9 8 1"/>
    </vehicle>
    <vehicle id="fl119_st0.0.0" depart="42.15" departLane="best" color="68,242,219">
        <route edges="119 117"/>
    </vehicle>
    <vehicle id="fl3_st0.0.2" depart="49.72" departLane="best" color="68,242,219">
        <route edges="3 7 21 10 25 32 38 41 42 50 55 58 62 69 74 80 82 87"/>
    </vehicle>
    <vehicle id="fl20_st0.0.5" depart="50.04" departLane="best" color="68,242,219">
        <route edges="20 121 115 109 107 106 101 89 88 81 79 68 67 61 56 57 51"/>
    </vehicle>
    <vehicle id="fl104_st0.0.4" depart="51.39" departLane="best" color="68,242,219">
        <route edges="104 94 100"/>
    </vehicle>
    <vehicle id="fl6_st0.0.0" depart="51.65" departLane="best" color="68,242,219">
        <route edges="6 70 7 21 10 25 32 38 41 42 50 51"/>
    </vehicle>
    <vehicle id="fl86_st0.0.1" depart="51.67" departLane="best" color="68,242,219">
        <route edges="86 84"/>
    </vehicle>
    <vehicle id="fl20_st0.0.6" depart="52.42" departLane="best" color="68,242,219">
        <route edges="20 121 115 109 107 106 101 89 88 81 79 68 67 61 64"/>
    </vehicle>
    <vehicle id="fl20_st0.0.7" depart="53.03" departLane="best" color="68,242,219">
        <route edges="20 121 115 109 107 106 101 89 88 81 79 68 67 61 56 57 49 43 40 39 33 23 24 9 8 5"/>
    </vehicle>
    <vehicle id="fl4_st0.0.4" depart="54.29" departLane="best" color="68,242,219">
        <route edges="4 99 98 96"/>
    </vehicle>
    <vehicle id="fl4_st0.0.5" depart="55.90" departLane="best" color="68,242,219">
        <route edges="4 99 97 103 108 110 116 122"/>
    </vehicle>
    <vehicle id="fl30_st0.0.10" depart="58.63" departLane="best" color="68,242,219">
        <route edges="30 26 19 12 9 8 1"/>
    </vehicle>
    <vehicle id="fl4_st0.0.6" depart="61.82" departLane="best" color="68,242,219">
        <route edges="4 99 98 96"/>
    </vehicle>
    <vehicle id="fl47_st0.0.4" depart="64.56" departLane="best" color="68,242,219">
        <route edges="47 45 40 39 34"/>
    </vehicle>
    <vehicle id="fl59_st0.0.0" depart="65.91" departLane="best" color="68,242,219">
        <route edges="59 56 57 49 43 40 39 33 23 24 9 8 1"/>
    </vehicle>
    <vehicle id="fl104_st0.0.5" depart="66.06" departLane="best" color="68,242,219">
        <route edges="104 94 100"/>
    </vehicle>
    <vehicle id="fl63_st0.0.1" depart="69.61" departLane="best" color="68,242,219">
        <route edges="63 60"/>
    </vehicle>
    <vehicle id="fl104_st0.0.6" depart="69.76" departLane="best" color="68,242,219">
        <route edges="104 94 100"/>
    </vehicle>
    <vehicle id="fl20_st0.0.8" depart="71.50" departLane="best" color="68,242,219">
        <route edges="20 121 115 109 107 106 101 89 88 81 79 68 67 61 56 57 49 43 40 39 33 23 24 9 8 1"/>
    </vehicle>
    <vehicle id="fl47_st0.0.5" depart="71.70" departLane="best" color="68,242,219">
        <route edges="47 45 40 39 33 23 24 9 8 1"/>
    </vehicle>
    <vehicle id="fl118_st0.0.0" depart="72.76" departLane="best" color="68,242,219">
        <route edges="118 115 109 107 106 101 100"/>
    </vehicle>
    <vehicle id="fl118_st0.0.1" depart="73.99" departLane="best" color="68,242,219">
        <route edges="118 120"/>
    </vehicle>
    <vehicle id="fl30_st0.0.11" depart="74.27" departLane="best" color="68,242,219">
        <route edges="30 26 19 15 25 32 38 41 42 50 55 58 62 69 74 80 82 90 91 92 103 108 110 116 122"/>
    </vehicle>
    <vehicle id="fl35_st0.0.1" depart="76.70" departLane="best" color="68,242,219">
        <route edges="35 73 37"/>
    </vehicle>
    <vehicle id="fl20_st0.0.9" depart="80.70" departLane="best" color="68,242,219">
        <route edges="20 121 115 109 107 106 101 89 88 81 79 68 67 61 56 57 49 43 40 39 33 23 24 9 8 1"/>
    </vehicle>
    <vehicle id="fl47_st0.0.6" depart="81.54" departLane="best" color="68,242,219">
        <route edges="47 46 42 50 55 58 62 69 74 80 82 90 91 93 100"/>
    </vehicle>
    <vehicle id="fl3_st0.0.3" depart="81.84" departLane="best" color="68,242,219">
        <route edges="3 7 21 10 25 32 38 41 42 50 55 58 62 69 74 80 82 90 91 92 96"/>
    </vehicle>
    <vehicle id="fl20_st0.0.10" depart="82.00" departLane="best" color="68,242,219">
        <route edges="20 121 115 109 107 106 101 89 88 81 79 68 67 61 56 57 49 43 40 39 33 23 13 22 28 29"/>
    </vehicle>
    <vehicle id="fl47_st0.0.7" depart="82.27" departLane="best" color="68,242,219">
        <route edges="47 45 40 39 33 23 24 9 8 1"/>
    </vehicle>
    <vehicle id="fl30_st0.0.12" depart="82.40" departLane="best" color="68,242,219">
        <route edges="30 26 19 15 25 32 38 41 48"/>
    </vehicle>
    <vehicle id="fl4_st0.0.7" depart="82.82" departLane="best" color="68,242,219">
        <route edges="4 99 98 89 88 81 79 75"/>
    </vehicle>
    <vehicle id="fl18_st0.0.3" depart="84.31" departLane="best" color="68,242,219">
        <route edges="18 16 22 28 29"/>
    </vehicle>
    <vehicle id="fl20_st0.0.11" depart="85.78" departLane="best" color="68,242,219">
        <route edges="20 121 115 109 107 106 101 89 88 81 79 68 67 61 56 57 49 43 40 39 33 23 13 22 28 29"/>
    </vehicle>
    <vehicle id="fl30_st0.0.13" depart="87.60" departLane="best" color="68,242,219">
        <route edges="30 26 19 15 17"/>
    </vehicle>
    <vehicle id="fl63_st0.0.2" depart="88.32" departLane="best" color="68,242,219">
        <route edges="63 62 69 74 80 82 90 91 92 96"/>
    </vehicle>
    <vehicle id="fl104_st0.0.7" depart="89.13" departLane="best" color="68,242,219">
        <route edges="104 94 100"/>
    </vehicle>
    <vehicle id="fl63_st0.0.3" depart="89.31" departLane="best" color="68,242,219">
        <route edges="63 62 69 74 80 82 90 91 93 100"/>
    </vehicle>
    <vehicle id="fl30_st0.0.14" depart="89.33" departLane="best" color="68,242,219">
        <route edges="30 26 19 15 25 32 38 41 42 50 55 58 62 69 74 80 82 90 91 93 100"/>
    </vehicle>
    <vehicle id="fl63_st0.0.4" depart="89.93" departLane="best" color="68,242,219">
        <route edges="63 62 69 74 80 82 90 91 92 96"/>
    </vehicle>
    <vehicle id="fl4_st0.0.8" depart="90.03" departLane="best" color="68,242,219">
        <route edges="4 99 98 89 88 81 79 68 67 61 56 57 49 43 40 39 33 23 13 22 28 29"/>
    </vehicle>
    <vehicle id="fl4_st0.0.9" depart="90.56" departLane="best" color="68,242,219">
        <route edges="4 99 98 89 88 81 79 68 67 61 56 57 49 43 40 39 33 23 24 9 8 1"/>
    </vehicle>
    <vehicle id="fl20_st0.0.12" depart="90.63" departLane="best" color="68,242,219">
        <route edges="20 121 115 109 107 106 101 89 88 81 79 68 67 61 56 57 49 43 40 39 33 23 24 9 8 1"/>
    </vehicle>
    <vehicle id="fl20_st0.0.13" depart="90.90" departLane="best" color="68,242,219">
        <route edges="20 121 117"/>
    </vehicle>
    <vehicle id="fl20_st0.0.14" depart="91.77" departLane="best" color="68,242,219">
        <route edges="20 121 117"/>
    </vehicle>
    <vehicle id="fl104_st0.0.8" depart="92.63" departLane="best" color="68,242,219">
        <route edges="104 95 89 88 81 79 68 67 61 56 57 49 43 40 39 33 23 13 22 28 27"/>
    </vehicle>
    <vehicle id="fl59_st0.0.1" depart="96.14" departLane="best" color="68,242,219">
        <route edges="59 64"/>
    </vehicle>
    <vehicle id="fl83_st0.0.1" depart="96.72" departLane="best" color="68,242,219">
        <route edges="83 90 91 92 96"/>
    </vehicle>
    <vehicle id="fl47_st0.0.8" depart="96.98" departLane="best" color="68,242,219">
        <route edges="47 46 42 50 55 58 64"/>
    </vehicle>
    <vehicle id="fl20_st0.0.15" depart="100.04" departLane="best" color="68,242,219">
        <route edges="20 121 120"/>
    </vehicle>
    <vehicle id="fl30_st0.0.15" depart="101.75" departLane="best" color="68,242,219">
        <route edges="30 26 19 15 25 32 38 41 42 50 55 58 62 69 74 80 82 90 91 92 103 108 110 116 122"/>
    </vehicle>
    <vehicle id="fl4_st0.0.10" depart="106.07" departLane="best" color="68,242,219">
        <route edges="4 99 98 96"/>
    </vehicle>
    <vehicle id="fl30_st0.0.16" depart="107.37" departLane="best" color="68,242,219">
        <route edges="30 26 19 15 25 32 38 41 42 50 55 58 62 69 74 80 82 90 91 92 103 108 110 116 122"/>
    </vehicle>
    <vehicle id="fl59_st0.0.2" depart="107.72" departLane="best" color="68,242,219">
        <route edges="59 62 69 74 80 82 90 91 93 100"/>
    </vehicle>
    <vehicle id="fl104_st0.0.9" depart="110.25" departLane="best" color="68,242,219">
        <route edges="104 94 100"/>
    </vehicle>
    <vehicle id="fl4_st0.0.11" depart="110.32" departLane="best" color="68,242,219">
        <route edges="4 99 98 96"/>
    </vehicle>
    <vehicle id="fl47_st0.0.9" depart="110.61" departLane="best" color="68,242,219">
        <route edges="47 45 40 39 33 23 24 9 8 1"/>
    </vehicle>
    <vehicle id="fl30_st0.0.17" depart="112.17" departLane="best" color="68,242,219">
        <route edges="30 26 19 15 17"/>
    </vehicle>
    <vehicle id="fl30_st0.0.18" depart="112.67" departLane="best" color="68,242,219">
        <route edges="30 26 19 15 25 32 38 41 42 50 55 58 62 69 74 80 82 90 91 93 100"/>
    </vehicle>
    <vehicle id="fl6_st0.0.1" depart="114.37" departLane="best" color="68,242,219">
        <route edges="6 70 7 21 10 25 32 38 41 48"/>
    </vehicle>
    <vehicle id="fl104_st0.0.10" depart="114.69" departLane="best" color="68,242,219">
        <route edges="104 95 89 88 81 79 68 67 61 56 57 49 43 40 39 33 23 24 9 8 1"/>
    </vehicle>
    <vehicle id="fl104_st0.0.11" depart="119.31" departLane="best" color="68,242,219">
        <route edges="104 95 89 88 81 79 68 67 61 56 57 49 43 40 39 33 23 13 22 28 29"/>
    </vehicle>
    <vehicle id="fl76_st0.0.0" depart="123.12" departLane="best" color="68,242,219">
        <route edges="76 80 82 90 91 93 100"/>
    </vehicle>
    <vehicle id="fl4_st0.0.12" depart="123.51" departLane="best" color="68,242,219">
        <route edges="4 99 98 89 88 81 79 68 67 61 56 57 49 43 40 39 33 23 24 9 8 5"/>
    </vehicle>
    <vehicle id="fl30_st0.0.19" depart="124.59" departLane="best" color="68,242,219">
        <route edges="30 26 19 15 25 32 38 41 42 50 55 58 62 69 74 80 82 90 91 92 103 108 110 116 122"/>
    </vehicle>
    <vehicle id="fl118_st0.0.2" depart="126.18" departLane="best" color="68,242,219">
        <route edges="118 120"/>
    </vehicle>
    <vehicle id="fl104_st0.0.12" depart="126.40" departLane="best" color="68,242,219">
        <route edges="104 94 100"/>
    </vehicle>
    <vehicle id="fl63_st0.0.5" depart="127.74" departLane="best" color="68,242,219">
        <route edges="63 60"/>
    </vehicle>
    <vehicle id="fl20_st0.0.16" depart="130.74" departLane="best" color="68,242,219">
        <route edges="20 121 115 109 107 106 101 89 88 81 79 68 67 61 56 57 49 43 40 39 33 23 24 9 8 1"/>
    </vehicle>
    <vehicle id="fl71_st0.0.1" depart="131.86" departLane="best" color="68,242,219">
        <route edges="71 7 21 10 25 32 37"/>
    </vehicle>
    <vehicle id="fl30_st0.0.20" depart="132.27" departLane="best" color="68,242,219">
        <route edges="30 26 19 12 9 8 5"/>
    </vehicle>
    <vehicle id="fl63_st0.0.6" depart="132.93" departLane="best" color="68,242,219">
        <route edges="63 62 69 74 80 82 90 91 93 100"/>
    </vehicle>
    <vehicle id="fl104_st0.0.13" depart="136.04" departLane="best" color="68,242,219">
        <route edges="104 94 100"/>
    </vehicle>
    <vehicle id="fl119_st0.0.1" depart="136.12" departLane="best" color="68,242,219">
        <route edges="119 122"/>
    </vehicle>
    <vehicle id="fl30_st0.0.21" depart="136.25" departLane="best" color="68,242,219">
        <route edges="30 26 19 15 25 32 38 41 42 50 51"/>
    </vehicle>
    <vehicle id="fl20_st0.0.17" depart="136.58" departLane="best" color="68,242,219">
        <route edges="20 121 117"/>
    </vehicle>
    <vehicle id="fl4_st0.0.13" depart="137.26" departLane="best" color="68,242,219">
        <route edges="4 99 98 89 88 81 79 68 67 61 56 57 49 43 40 39 33 23 24 9 8 1"/>
    </vehicle>
    <vehicle id="fl54_st0.0.0" depart="137.63" departLane="best" color="68,242,219">
        <route edges="54 111 51"/>
    </vehicle>
    <vehicle id="fl104_st0.0.14" depart="138.57" departLane="best" color="68,242,219">
        <route edges="104 94 100"/>
    </vehicle>
    <vehicle id="fl4_st0.0.14" depart="139.53" departLane="best" color="68,242,219">
        <route edges="4 99 98 96"/>
    </vehicle>
    <vehicle id="fl54_st0.0.1" depart="140.44" departLane="best" color="68,242,219">
        <route edges="54 111 49 43 40 39 33 23 24 9 8 2"/>
    </vehicle>
    <vehicle id="fl18_st0.0.4" depart="142.20" departLane="best" color="68,242,219">
        <route edges="18 14 25 32 38 41 42 50 55 58 62 69 74 77"/>
    </vehicle>
    <vehicle id="fl86_st0.0.2" depart="144.31" departLane="best" color="68,242,219">
        <route edges="86 90 91 93 100"/>
    </vehicle>
    <vehicle id="fl54_st0.0.2" depart="144.91" departLane="best" color="68,242,219">
        <route edges="54 111 55 58 62 69 74 80 82 90 91 92 103 108 110 116 122"/>
    </vehicle>
    <vehicle id="fl6_st0.0.2" depart="146.34" departLane="best" color="68,242,219">
        <route edges="6 70 7 21 10 25 32 38 41 48"/>
    </vehicle>
    <vehicle id="fl20_st0.0.18" depart="146.47" departLane="best" color="68,242,219">
        <route edges="20 121 115 109 107 106 101 89 88 81 79 68 67 61 56 57 49 43 40 39 33 23 24 9 8 1"/>
    </vehicle>
    <vehicle id="fl86_st0.0.3" depart="148.01" departLane="best" color="68,242,219">
        <route edges="86 81 79 68 67 61 56 57 49 43 40 39 33 23 13 22 28 29"/>
    </vehicle>
    <vehicle id="fl4_st0.0.15" depart="149.10" departLane="best" color="68,242,219">
        <route edges="4 99 98 89 88 81 79 68 67 61 56 57 49 43 40 39 33 23 13 22 28 29"/>
    </vehicle>
    <vehicle id="fl30_st0.0.22" depart="150.04" departLane="best" color="68,242,219">
        <route edges="30 26 19 15 25 32 38 41 48"/>
    </vehicle>
    <vehicle id="fl54_st0.0.3" depart="150.44" departLane="best" color="68,242,219">
        <route edges="54 111 51"/>
    </vehicle>
    <vehicle id="fl47_st0.0.10" depart="154.78" departLane="best" color="68,242,219">
        <route edges="47 46 42 50 55 58 62 69 74 80 82 90 91 92 103 108 110 116 122"/>
    </vehicle>
    <vehicle id="fl52_st0.0.0" depart="154.82" departLane="best" color="68,242,219">
        <route edges="52 112 55 58 62 69 74 80 82 90 91 92 103 108 110 116 122"/>
    </vehicle>
    <vehicle id="fl3_st0.0.4" depart="156.85" departLane="best" color="68,242,219">
        <route edges="3 7 21 10 25 32 37"/>
    </vehicle>
    <vehicle id="fl63_st0.0.7" depart="156.93" departLane="best" color="68,242,219">
        <route edges="63 62 69 74 80 82 90 91 92 96"/>
    </vehicle>
    <vehicle id="fl30_st0.0.23" depart="158.48" departLane="best" color="68,242,219">
        <route edges="30 26 19 15 17"/>
    </vehicle>
    <vehicle id="fl18_st0.0.5" depart="158.69" departLane="best" color="68,242,219">
        <route edges="18 14 25 32 38 41 42 50 55 58 62 69 74 80 82 90 91 92 96"/>
    </vehicle>
    <vehicle id="fl4_st0.0.16" depart="158.84" departLane="best" color="68,242,219">
        <route edges="4 99 98 96"/>
    </vehicle>
    <vehicle id="fl83_st0.0.2" depart="160.02" departLane="best" color="68,242,219">
        <route edges="83 90 91 92 96"/>
    </vehicle>
    <vehicle id="fl47_st0.0.11" depart="160.12" departLane="best" color="68,242,219">
        <route edges="47 45 40 39 33 23 24 9 8 1"/>
    </vehicle>
    <vehicle id="fl30_st0.0.24" depart="160.41" departLane="best" color="68,242,219">
        <route edges="30 26 19 15 25 32 38 41 42 50 55 58 62 69 74 80 82 90 91 92 103 108 110 116 120"/>
    </vehicle>
    <vehicle id="fl52_st0.0.1" depart="163.12" departLane="best" color="68,242,219">
        <route edges="52 112 49 44 48"/>
    </vehicle>
    <vehicle id="fl3_st0.0.5" depart="163.98" departLane="best" color="68,242,219">
        <route edges="3 7 21 10 22 28 29"/>
    </vehicle>
    <vehicle id="fl20_st0.0.19" depart="164.11" departLane="best" color="68,242,219">
        <route edges="20 121 115 109 107 106 102 96"/>
    </vehicle>
    <vehicle id="fl4_st0.0.17" depart="168.44" departLane="best" color="68,242,219">
        <route edges="4 99 97 103 108 110 116 122"/>
    </vehicle>
    <vehicle id="fl30_st0.0.25" depart="168.94" departLane="best" color="68,242,219">
        <route edges="30 26 19 15 17"/>
    </vehicle>
    <vehicle id="fl4_st0.0.18" depart="168.99" departLane="best" color="68,242,219">
        <route edges="4 99 98 96"/>
    </vehicle>
    <vehicle id="fl104_st0.0.15" depart="169.56" departLane="best" color="68,242,219">
        <route edges="104 95 89 88 81 79 68 67 61 56 57 49 44 48"/>
    </vehicle>
    <vehicle id="fl30_st0.0.26" depart="170.21" departLane="best" color="68,242,219">
        <route edges="30 26 19 15 25 32 38 41 42 50 55 58 62 69 74 80 82 90 91 92 96"/>
    </vehicle>
    <vehicle id="fl119_st0.0.2" depart="171.66" departLane="best" color="68,242,219">
        <route edges="119 122"/>
    </vehicle>
    <vehicle id="fl83_st0.0.3" depart="172.58" departLane="best" color="68,242,219">
        <route edges="83 90 91 92 103 108 110 116 122"/>
    </vehicle>
    <vehicle id="fl30_st0.0.27" depart="175.44" departLane="best" color="68,242,219">
        <route edges="30 26 19 15 25 32 38 41 42 50 55 58 62 69 74 80 82 90 91 92 103 108 110 116 120"/>
    </vehicle>
    <vehicle id="fl18_st0.0.6" depart="176.49" departLane="best" color="68,242,219">
        <route edges="18 14 25 32 38 41 48"/>
    </vehicle>
    <vehicle id="fl104_st0.0.16" depart="176.99" departLane="best" color="68,242,219">
        <route edges="104 95 89 88 81 79 68 67 61 56 57 51"/>
    </vehicle>
    <vehicle id="fl104_st0.0.17" depart="180.24" departLane="best" color="68,242,219">
        <route edges="104 94 100"/>
    </vehicle>
    <vehicle id="fl104_st0.0.18" depart="180.93" departLane="best" color="68,242,219">
        <route edges="104 94 100"/>
    </vehicle>
    <vehicle id="fl4_st0.0.19" depart="183.53" departLane="best" color="68,242,219">
        <route edges="4 99 98 89 88 81 79 68 67 61 56 57 49 43 40 39 33 23 13 22 28 27"/>
    </vehicle>
    <vehicle id="fl4_st0.0.20" depart="184.84" departLane="best" color="68,242,219">
        <route edges="4 99 98 89 88 81 79 68 67 61 56 57 49 43 40 39 33 23 13 22 28 29"/>
    </vehicle>
    <vehicle id="fl30_st0.0.28" depart="185.19" departLane="best" color="68,242,219">
        <route edges="30 26 19 15 25 32 38 41 42 50 55 58 62 69 74 80 82 87"/>
    </vehicle>
    <vehicle id="fl4_st0.0.21" depart="185.25" departLane="best" color="68,242,219">
        <route edges="4 99 98 89 88 81 79 68 67 61 56 57 49 43 40 39 33 23 24 9 8 1"/>
    </vehicle>
    <vehicle id="fl20_st0.0.20" depart="185.75" departLane="best" color="68,242,219">
        <route edges="20 121 117"/>
    </vehicle>
    <vehicle id="fl3_st0.0.6" depart="186.24" departLane="best" color="68,242,219">
        <route edges="3 7 21 10 25 32 38 41 42 50 55 58 62 69 74 80 82 90 91 93 100"/>
    </vehicle>
    <vehicle id="fl30_st0.0.29" depart="188.32" departLane="best" color="68,242,219">
        <route edges="30 26 19 15 25 32 38 41 42 50 55 58 62 69 74 80 82 90 91 93 100"/>
    </vehicle>
    <vehicle id="fl63_st0.0.8" depart="190.91" departLane="best" color="68,242,219">
        <route edges="63 60"/>
    </vehicle>
    <vehicle id="fl4_st0.0.22" depart="193.00" departLane="best" color="68,242,219">
        <route edges="4 99 98 96"/>
    </vehicle>
    <vehicle id="fl3_st0.0.7" depart="195.83" departLane="best" color="68,242,219">
        <route edges="3 7 21 10 25 32 38 41 42 50 53"/>
    </vehicle>
    <vehicle id="fl86_st0.0.4" depart="197.11" departLane="best" color="68,242,219">
        <route edges="86 81 79 68 67 61 56 57 49 43 40 39 33 23 13 22 28 29"/>
    </vehicle>
    <vehicle id="fl30_st0.0.30" depart="198.20" departLane="best" color="68,242,219">
        <route edges="30 26 19 15 17"/>
    </vehicle>
    <vehicle id="fl47_st0.0.12" depart="198.77" departLane="best" color="68,242,219">
        <route edges="47 45 40 39 33 23 24 9 8 1"/>
    </vehicle>
    <vehicle id="fl104_st0.0.19" depart="201.55" departLane="best" color="68,242,219">
        <route edges="104 95 89 88 81 79 68 67 61 56 57 49 43 40 39 33 23 24 9 8 1"/>
    </vehicle>
    <vehicle id="fl104_st0.0.20" depart="203.32" departLane="best" color="68,242,219">
        <route edges="104 94 100"/>
    </vehicle>
    <vehicle id="fl30_st0.0.31" depart="203.64" departLane="best" color="68,242,219">
        <route edges="30 26 19 12 9 8 1"/>
    </vehicle>
    <vehicle id="fl3_st0.0.8" depart="204.90" departLane="best" color="68,242,219">
        <route edges="3 7 21 10 25 32 37"/>
    </vehicle>
    <vehicle id="fl104_st0.0.21" depart="207.53" departLane="best" color="68,242,219">
        <route edges="104 95 89 88 81 79 68 67 61 56 57 49 44 48"/>
    </vehicle>
    <vehicle id="fl20_st0.0.21" depart="207.55" departLane="best" color="68,242,219">
        <route edges="20 121 115 109 107 106 101 89 88 81 79 68 67 61 56 57 49 43 40 39 33 23 24 9 8 1"/>
    </vehicle>
    <vehicle id="fl30_st0.0.32" depart="208.39" departLane="best" color="68,242,219">
        <route edges="30 26 19 15 25 32 38 41 48"/>
    </vehicle>
    <vehicle id="fl63_st0.0.9" depart="210.52" departLane="best" color="68,242,219">
        <route edges="63 56 57 49 43 40 39 33 23 24 9 8 1"/>
    </vehicle>
    <vehicle id="fl18_st0.0.7" depart="210.58" departLane="best" color="68,242,219">
        <route edges="18 16 22 28 27"/>
    </vehicle>
    <vehicle id="fl86_st0.0.5" depart="211.33" departLane="best" color="68,242,219">
        <route edges="86 81 79 68 67 61 56 57 49 43 40 39 33 23 24 9 8 1"/>
    </vehicle>
    <vehicle id="fl104_st0.0.22" depart="211.69" departLane="best" color="68,242,219">
        <route edges="104 95 89 88 81 79 68 67 61 56 57 49 44 48"/>
    </vehicle>
    <vehicle id="fl59_st0.0.3" depart="212.03" departLane="best" color="68,242,219">
        <route edges="59 64"/>
    </vehicle>
    <vehicle id="fl59_st0.0.4" depart="212.96" departLane="best" color="68,242,219">
        <route edges="59 64"/>
    </vehicle>
    <vehicle id="fl104_st0.0.23" depart="214.71" departLane="best" color="68,242,219">
        <route edges="104 94 100"/>
    </vehicle>
    <vehicle id="fl30_st0.0.33" depart="214.80" departLane="best" color="68,242,219">
        <route edges="30 26 19 15 17"/>
    </vehicle>