<?xml version="1.0" encoding="UTF-8"?>

<!-- generated on 2022-06-24 13:01:27 by Eclipse SUMO netedit Version 1.11.0
<configuration xmlns:xsi="http://www.w3.org/2001/XMLSchema-instance" xsi:noNamespaceSchemaLocation="http://sumo.dlr.de/xsd/netconvertConfiguration.xsd">

    <input>
        <sumo-net-file value="/Users/davidneiman/Documents/GitHub.nosync/traffic-routing/surtrac_test/stalbert_fixed_tls.net.xml"/>
    </input>

    <output>
        <output-file value="/Users/davidneiman/Documents/GitHub.nosync/traffic-routing/surtrac_test/stalbert_fixed_tls.net.xml"/>
    </output>

    <processing>
        <geometry.min-radius.fix.railways value="false"/>
        <geometry.max-grade.fix value="false"/>
        <offset.disable-normalization value="true"/>
        <lefthand value="false"/>
    </processing>

    <junctions>
        <no-turnarounds value="true"/>
        <junctions.corner-detail value="5"/>
        <junctions.limit-turn-speed value="5.5"/>
        <rectangular-lane-cut value="false"/>
    </junctions>

    <pedestrian>
        <walkingareas value="false"/>
    </pedestrian>

    <report>
        <aggregate-warnings value="5"/>
    </report>

</configuration>
-->

<net version="1.9" junctionCornerDetail="5" limitTurnSpeed="5.50" xmlns:xsi="http://www.w3.org/2001/XMLSchema-instance" xsi:noNamespaceSchemaLocation="http://sumo.dlr.de/xsd/net_file.xsd">

    <location netOffset="3580.27,492.47" convBoundary="0.00,0.00,3684.65,2536.34" origBoundary="-3580.27,-492.47,104.38,2043.87" projParameter="!"/>

    <edge id=":0_0" function="internal">
        <lane id=":0_0_0" index="0" speed="7.73" length="12.83" width="3.50" shape="3580.71,508.29 3576.38,508.64 3573.26,509.70 3571.36,511.48 3570.68,513.97"/>
    </edge>
    <edge id=":0_1" function="internal">
        <lane id=":0_1_0" index="0" speed="13.89" length="22.72" width="3.50" shape="3580.71,508.29 3558.07,506.58"/>
        <lane id=":0_1_1" index="1" speed="13.89" length="22.72" width="3.50" shape="3580.72,504.79 3558.06,503.08"/>
    </edge>
    <edge id=":0_3" function="internal">
        <lane id=":0_3_0" index="0" speed="10.19" length="11.30" width="3.50" shape="3580.72,501.29 3575.19,500.27 3571.22,497.23 3570.93,496.62"/>
    </edge>
    <edge id=":0_14" function="internal">
        <lane id=":0_14_0" index="0" speed="10.19" length="12.07" width="3.50" shape="3570.93,496.62 3568.80,492.17 3567.94,485.09"/>
    </edge>
    <edge id=":0_4" function="internal">
        <lane id=":0_4_0" index="0" speed="6.91" length="10.12" width="3.50" shape="3574.94,485.02 3575.33,487.97 3576.42,490.09 3578.23,491.36 3580.74,491.78"/>
    </edge>
    <edge id=":0_5" function="internal">
        <lane id=":0_5_0" index="0" speed="13.89" length="28.93" width="3.50" shape="3571.44,485.05 3570.68,513.97"/>
    </edge>
    <edge id=":0_6" function="internal">
        <lane id=":0_6_0" index="0" speed="10.55" length="11.04" width="3.50" shape="3571.44,485.05 3570.67,492.92 3569.40,495.79"/>
    </edge>
    <edge id=":0_15" function="internal">
        <lane id=":0_15_0" index="0" speed="10.55" length="14.45" width="3.50" shape="3569.40,495.79 3568.19,498.54 3563.98,501.93 3558.06,503.08"/>
    </edge>
    <edge id=":0_7" function="internal">
        <lane id=":0_7_0" index="0" speed="7.63" length="12.85" width="3.50" shape="3558.00,490.83 3562.37,490.48 3565.48,489.41 3567.34,487.61 3567.94,485.09"/>
    </edge>
    <edge id=":0_8" function="internal">
        <lane id=":0_8_0" index="0" speed="13.89" length="22.74" width="3.50" shape="3558.00,490.83 3580.74,491.78"/>
        <lane id=":0_8_1" index="1" speed="13.89" length="22.74" width="3.50" shape="3558.02,494.33 3580.73,495.28"/>
    </edge>
    <edge id=":0_10" function="internal">
        <lane id=":0_10_0" index="0" speed="10.08" length="10.99" width="3.50" shape="3558.03,497.83 3563.72,498.86 3567.73,501.89 3567.80,502.06"/>
    </edge>
    <edge id=":0_16" function="internal">
        <lane id=":0_16_0" index="0" speed="10.08" length="12.43" width="3.50" shape="3567.80,502.06 3570.04,506.93 3570.68,513.97"/>
    </edge>
    <edge id=":0_11" function="internal">
        <lane id=":0_11_0" index="0" speed="6.90" length="10.45" width="3.50" shape="3563.68,513.79 3563.40,510.63 3562.38,508.37 3560.60,507.02 3558.07,506.58"/>
    </edge>
    <edge id=":0_12" function="internal">
        <lane id=":0_12_0" index="0" speed="13.89" length="28.80" width="3.50" shape="3567.17,513.88 3567.94,485.09"/>
    </edge>
    <edge id=":0_13" function="internal">
        <lane id=":0_13_0" index="0" speed="10.76" length="10.61" width="3.50" shape="3567.17,513.88 3568.22,505.74 3569.20,503.55"/>
    </edge>
    <edge id=":0_17" function="internal">
        <lane id=":0_17_0" index="0" speed="10.76" length="15.26" width="3.50" shape="3569.20,503.55 3570.83,499.92 3575.00,496.44 3580.73,495.28"/>
    </edge>
    <edge id=":1_0" function="internal">
        <lane id=":1_0_0" index="0" speed="13.89" length="30.26" width="3.50" shape="824.25,2224.35 802.44,2203.50"/>
        <lane id=":1_0_1" index="1" speed="13.89" length="30.26" width="3.50" shape="824.25,2224.35 805.05,2201.17"/>
        <lane id=":1_0_2" index="2" speed="13.89" length="30.26" width="3.50" shape="824.25,2224.35 821.67,2220.36 818.46,2214.38 814.00,2207.02 807.66,2198.84"/>
    </edge>
    <edge id=":10_0" function="internal">
        <lane id=":10_0_0" index="0" speed="13.89" length="16.44" width="3.50" shape="3371.11,373.76 3371.52,390.13"/>
        <lane id=":10_0_1" index="1" speed="13.89" length="16.44" width="3.50" shape="3371.11,373.76 3370.56,378.61 3369.60,381.86 3368.63,385.11 3368.02,389.96"/>
        <lane id=":10_0_2" index="2" speed="13.89" length="16.44" width="3.50" shape="3367.61,373.64 3368.02,389.96"/>
        <lane id=":10_0_3" index="3" speed="13.89" length="16.44" width="3.50" shape="3367.61,373.64 3367.06,378.47 3366.10,381.72 3365.13,384.96 3364.52,389.79"/>
    </edge>
    <edge id=":11_0" function="internal">
        <lane id=":11_0_0" index="0" speed="13.89" length="15.03" width="3.50" shape="180.16,2474.52 184.19,2472.96 186.89,2471.75 189.53,2470.42 193.41,2468.50"/>
        <lane id=":11_0_1" index="1" speed="13.89" length="15.03" width="3.50" shape="180.16,2474.52 184.50,2473.43 187.65,2473.34 190.76,2473.11 194.93,2471.65"/>
        <lane id=":11_0_2" index="2" speed="13.89" length="15.03" width="3.50" shape="181.38,2477.80 185.50,2476.21 188.26,2474.97 190.97,2473.62 194.93,2471.65"/>
        <lane id=":11_0_3" index="3" speed="13.89" length="15.03" width="3.50" shape="181.38,2477.80 185.80,2476.68 189.02,2476.56 192.19,2476.31 196.45,2474.80"/>
    </edge>
    <edge id=":12_0" function="internal">
        <lane id=":12_0_0" index="0" speed="13.89" length="17.29" width="3.50" shape="3351.90,390.35 3351.99,373.25"/>
        <lane id=":12_0_1" index="1" speed="13.89" length="17.29" width="3.50" shape="3351.90,390.35 3352.60,385.26 3353.73,381.87 3354.85,378.48 3355.49,373.39"/>
        <lane id=":12_0_2" index="2" speed="13.89" length="17.29" width="3.50" shape="3355.40,390.52 3355.49,373.39"/>
        <lane id=":12_0_3" index="3" speed="13.89" length="17.29" width="3.50" shape="3355.40,390.52 3356.09,385.43 3357.23,382.03 3358.34,378.63 3358.99,373.53"/>
        <lane id=":12_0_4" index="4" speed="13.89" length="17.29" width="3.50" shape="3358.90,390.69 3358.99,373.53"/>
        <lane id=":12_0_5" index="5" speed="13.89" length="17.29" width="3.50" shape="3358.90,390.69 3359.59,385.59 3360.72,382.18 3361.84,378.78 3362.49,373.67"/>
    </edge>
    <edge id=":13_0" function="internal">
        <lane id=":13_0_0" index="0" speed="13.89" length="22.57" width="3.50" shape="3211.73,489.97 3217.87,489.53 3222.47,488.55 3227.32,487.58 3234.20,487.16"/>
        <lane id=":13_0_1" index="1" speed="13.89" length="22.57" width="3.50" shape="3211.73,489.97 3234.18,490.66"/>
        <lane id=":13_0_2" index="2" speed="13.89" length="22.57" width="3.50" shape="3211.73,493.47 3217.86,493.03 3222.46,492.05 3227.30,491.08 3234.18,490.66"/>
        <lane id=":13_0_3" index="3" speed="13.89" length="22.57" width="3.50" shape="3211.73,493.47 3234.16,494.16"/>
    </edge>
    <edge id=":14_0" function="internal">
        <lane id=":14_0_0" index="0" speed="13.89" length="24.14" width="3.50" shape="3076.56,506.68 3052.58,506.46"/>
        <lane id=":14_0_1" index="1" speed="13.89" length="24.14" width="3.50" shape="3076.56,506.68 3070.31,506.08 3065.39,504.84 3060.07,503.59 3052.62,502.96"/>
        <lane id=":14_0_2" index="2" speed="13.89" length="24.14" width="3.50" shape="3076.60,503.18 3052.62,502.96"/>
        <lane id=":14_0_3" index="3" speed="13.89" length="24.14" width="3.50" shape="3076.60,503.18 3070.34,502.58 3065.42,501.34 3060.10,500.09 3052.66,499.46"/>
    </edge>
    <edge id=":15_0" function="internal">
        <lane id=":15_0_0" index="0" speed="7.32" length="11.70" width="3.50" shape="3381.38,329.71 3377.58,329.89 3374.83,330.85 3373.14,332.57 3372.51,335.07"/>
    </edge>
    <edge id=":15_1" function="internal">
        <lane id=":15_1_0" index="0" speed="10.42" length="24.53" width="3.50" shape="3381.38,329.71 3373.16,328.63 3367.36,326.28 3363.95,322.65 3362.96,317.74"/>
    </edge>
    <edge id=":15_2" function="internal">
        <lane id=":15_2_0" index="0" speed="7.14" length="10.92" width="3.50" shape="3376.10,318.23 3376.33,321.62 3377.32,324.08 3379.05,325.61 3381.54,326.21"/>
    </edge>
    <edge id=":15_3" function="internal">
        <lane id=":15_3_0" index="0" speed="13.89" length="16.97" width="3.50" shape="3372.60,318.10 3372.51,335.07"/>
        <lane id=":15_3_1" index="1" speed="13.89" length="16.97" width="3.50" shape="3369.10,317.97 3369.01,334.94"/>
    </edge>
    <edge id=":15_5" function="internal">
        <lane id=":15_5_0" index="0" speed="13.89" length="17.10" width="3.50" shape="3353.55,334.38 3354.03,329.34 3354.77,325.93 3355.50,322.52 3355.96,317.48"/>
        <lane id=":15_5_1" index="1" speed="13.89" length="17.10" width="3.50" shape="3357.05,334.51 3357.52,329.47 3358.26,326.06 3359.00,322.65 3359.46,317.61"/>
        <lane id=":15_5_2" index="2" speed="13.89" length="17.10" width="3.50" shape="3360.55,334.64 3361.02,329.60 3361.76,326.19 3362.49,322.78 3362.96,317.74"/>
    </edge>
    <edge id=":15_8" function="internal">
        <lane id=":15_8_0" index="0" speed="9.77" length="6.85" width="3.50" shape="3364.04,334.76 3365.28,330.72 3367.29,329.04"/>
    </edge>
    <edge id=":15_9" function="internal">
        <lane id=":15_9_0" index="0" speed="9.77" length="14.85" width="3.50" shape="3367.29,329.04 3368.61,327.95 3374.03,326.44 3381.54,326.21"/>
    </edge>
    <edge id=":16_0" function="internal">
        <lane id=":16_0_0" index="0" speed="6.92" length="10.20" width="3.50" shape="2965.25,512.13 2964.88,509.12 2963.79,506.97 2961.99,505.68 2959.48,505.25"/>
    </edge>
    <edge id=":16_1" function="internal">
        <lane id=":16_1_0" index="0" speed="13.89" length="29.22" width="3.50" shape="2968.75,512.11 2968.33,482.89"/>
    </edge>
    <edge id=":16_2" function="internal">
        <lane id=":16_2_0" index="0" speed="10.59" length="10.80" width="3.50" shape="2968.75,512.11 2969.49,503.72 2970.34,501.50"/>
    </edge>
    <edge id=":16_14" function="internal">
        <lane id=":16_14_0" index="0" speed="10.59" length="14.87" width="3.50" shape="2970.34,501.50 2971.79,497.74 2975.66,494.15 2981.09,492.97"/>
    </edge>
    <edge id=":16_3" function="internal">
        <lane id=":16_3_0" index="0" speed="7.50" length="12.41" width="3.50" shape="2981.06,505.66 2977.19,506.02 2974.43,507.21 2972.78,509.24 2972.24,512.09"/>
    </edge>
    <edge id=":16_4" function="internal">
        <lane id=":16_4_0" index="0" speed="13.89" length="21.59" width="3.50" shape="2981.06,505.66 2959.48,505.25"/>
        <lane id=":16_4_1" index="1" speed="13.89" length="21.59" width="3.50" shape="2981.07,502.16 2959.48,501.75"/>
    </edge>
    <edge id=":16_6" function="internal">
        <lane id=":16_6_0" index="0" speed="10.13" length="10.94" width="3.50" shape="2981.08,498.66 2975.53,497.62 2971.56,494.64 2971.41,494.34"/>
    </edge>
    <edge id=":16_15" function="internal">
        <lane id=":16_15_0" index="0" speed="10.13" length="12.02" width="3.50" shape="2971.41,494.34 2969.16,489.74 2968.33,482.89"/>
    </edge>
    <edge id=":16_7" function="internal">
        <lane id=":16_7_0" index="0" speed="6.85" length="9.98" width="3.50" shape="2975.33,482.86 2975.70,485.74 2976.79,487.81 2978.59,489.05 2981.10,489.47"/>
    </edge>
    <edge id=":16_8" function="internal">
        <lane id=":16_8_0" index="0" speed="13.89" length="29.22" width="3.50" shape="2971.83,482.87 2972.24,512.09"/>
    </edge>
    <edge id=":16_9" function="internal">
        <lane id=":16_9_0" index="0" speed="10.54" length="10.66" width="3.50" shape="2971.83,482.87 2971.09,491.14 2970.23,493.34"/>
    </edge>
    <edge id=":16_16" function="internal">
        <lane id=":16_16_0" index="0" speed="10.54" length="14.77" width="3.50" shape="2970.23,493.34 2968.79,497.04 2964.92,500.57 2959.48,501.75"/>
    </edge>
    <edge id=":16_10" function="internal">
        <lane id=":16_10_0" index="0" speed="7.37" length="11.87" width="3.50" shape="2959.51,488.63 2963.38,488.28 2966.14,487.21 2967.79,485.41 2968.33,482.89"/>
    </edge>
    <edge id=":16_11" function="internal">
        <lane id=":16_11_0" index="0" speed="13.89" length="21.61" width="3.50" shape="2959.51,488.63 2981.10,489.47"/>
        <lane id=":16_11_1" index="1" speed="13.89" length="21.61" width="3.50" shape="2959.50,492.13 2981.09,492.97"/>
    </edge>
    <edge id=":16_13" function="internal">
        <lane id=":16_13_0" index="0" speed="10.22" length="11.13" width="3.50" shape="2959.49,495.63 2965.04,496.67 2969.01,499.76 2969.20,500.18"/>
    </edge>
    <edge id=":16_17" function="internal">
        <lane id=":16_17_0" index="0" speed="10.22" length="12.45" width="3.50" shape="2969.20,500.18 2971.41,504.90 2972.24,512.09"/>
    </edge>
    <edge id=":17_0" function="internal">
        <lane id=":17_0_0" index="0" speed="13.89" length="24.17" width="3.50" shape="2969.14,553.55 2968.56,549.10 2967.26,543.43 2965.95,536.82 2965.33,529.56"/>
        <lane id=":17_0_1" index="1" speed="13.89" length="24.17" width="3.50" shape="2969.14,553.55 2968.83,529.54"/>
    </edge>
    <edge id=":18_0" function="internal">
        <lane id=":18_0_0" index="0" speed="13.89" length="28.12" width="3.50" shape="2971.59,434.96 2972.17,440.04 2973.42,447.08 2974.66,455.05 2975.25,462.94"/>
        <lane id=":18_0_1" index="1" speed="13.89" length="28.12" width="3.50" shape="2971.59,434.96 2971.75,462.96"/>
    </edge>
    <edge id=":19_0" function="internal">
        <lane id=":19_0_0" index="0" speed="13.89" length="53.13" width="3.50" shape="2713.78,504.85 2703.55,505.65 2689.74,507.80 2675.15,510.88 2662.58,514.47"/>
        <lane id=":19_0_1" index="1" speed="13.89" length="53.13" width="3.50" shape="2713.78,504.85 2703.37,505.14 2689.17,506.15 2674.18,508.09 2661.43,511.16"/>
        <lane id=":19_0_2" index="2" speed="13.89" length="53.13" width="3.50" shape="2713.78,501.35 2703.38,502.18 2689.17,504.40 2674.18,507.55 2661.43,511.16"/>
        <lane id=":19_0_3" index="3" speed="13.89" length="53.13" width="3.50" shape="2713.78,501.35 2703.20,501.67 2688.59,502.75 2673.21,504.76 2660.28,507.85"/>
    </edge>
    <edge id=":2_0" function="internal">
        <lane id=":2_0_0" index="0" speed="13.89" length="16.45" width="3.50" shape="3566.09,555.56 3565.64,552.07 3564.49,548.64 3563.36,544.60 3562.95,539.25"/>
        <lane id=":2_0_1" index="1" speed="13.89" length="16.45" width="3.50" shape="3566.09,555.56 3566.45,539.35"/>
    </edge>
    <edge id=":20_0" function="internal">
        <lane id=":20_0_0" index="0" speed="13.89" length="22.25" width="3.50" shape="2874.98,488.57 2897.06,488.47"/>
        <lane id=":20_0_1" index="1" speed="13.89" length="22.25" width="3.50" shape="2874.98,488.57 2881.07,489.11 2885.57,490.27 2890.30,491.43 2897.05,491.97"/>
        <lane id=":20_0_2" index="2" speed="13.89" length="22.25" width="3.50" shape="2874.96,492.07 2897.05,491.97"/>
        <lane id=":20_0_3" index="3" speed="13.89" length="22.25" width="3.50" shape="2874.96,492.07 2881.06,492.61 2885.56,493.77 2890.29,494.93 2897.04,495.47"/>
    </edge>
    <edge id=":21_0" function="internal">
        <lane id=":21_0_0" index="0" speed="8.88" length="11.97" width="3.50" shape="2581.17,525.99 2584.46,527.75 2587.43,528.61 2590.07,528.56 2592.38,527.61"/>
    </edge>
    <edge id=":21_1" function="internal">
        <lane id=":21_1_0" index="0" speed="13.89" length="35.33" width="3.50" shape="2563.56,548.47 2570.00,543.13 2577.60,537.56 2585.39,532.23 2592.38,527.61"/>
        <lane id=":21_1_1" index="1" speed="13.89" length="35.33" width="3.50" shape="2565.92,551.05 2572.29,545.77 2579.74,540.32 2587.37,535.10 2594.30,530.53"/>
    </edge>
    <edge id=":22_0" function="internal">
        <lane id=":22_0_0" index="0" speed="13.89" length="26.55" width="3.50" shape="2597.07,545.39 2589.89,549.36 2584.57,552.26 2579.99,555.21 2575.04,559.34"/>
        <lane id=":22_0_1" index="1" speed="13.89" length="26.55" width="3.50" shape="2595.32,542.36 2587.90,546.48 2582.38,549.53 2577.66,552.60 2572.66,556.78"/>
    </edge>
    <edge id=":22_2" function="internal">
        <lane id=":22_2_0" index="0" speed="13.89" length="40.66" width="3.50" shape="2593.57,539.33 2585.24,542.17 2576.42,541.38 2567.10,536.97 2557.29,528.93"/>
    </edge>
    <edge id=":22_3" function="internal">
        <lane id=":22_3_0" index="0" speed="12.09" length="33.08" width="3.50" shape="2576.82,530.25 2581.72,537.72 2583.05,545.06 2580.83,552.27 2575.04,559.34"/>
        <lane id=":22_3_1" index="1" speed="11.61" length="30.44" width="3.50" shape="2571.85,529.91 2576.94,537.28 2578.77,544.22 2577.35,550.71 2572.66,556.78"/>
    </edge>
    <edge id=":22_5" function="internal">
        <lane id=":22_5_0" index="0" speed="10.93" length="17.64" width="3.50" shape="2553.25,545.31 2554.59,539.87 2554.81,535.26 2553.92,531.49 2551.92,528.56"/>
    </edge>
    <edge id=":23_0" function="internal">
        <lane id=":23_0_0" index="0" speed="13.89" length="26.32" width="3.50" shape="2364.02,739.78 2343.59,756.45"/>
        <lane id=":23_0_1" index="1" speed="13.89" length="26.32" width="3.50" shape="2364.02,739.78 2341.62,753.56"/>
        <lane id=":23_0_2" index="2" speed="13.89" length="26.32" width="3.50" shape="2362.02,736.90 2341.62,753.56"/>
        <lane id=":23_0_3" index="3" speed="13.89" length="26.32" width="3.50" shape="2362.02,736.90 2339.65,750.67"/>
    </edge>
    <edge id=":24_0" function="internal">
        <lane id=":24_0_0" index="0" speed="13.89" length="17.37" width="3.50" shape="2538.95,570.20 2542.80,566.12 2545.22,562.49 2546.91,559.14 2548.54,555.87"/>
    </edge>
    <edge id=":24_1" function="internal">
        <lane id=":24_1_0" index="0" speed="13.89" length="17.51" width="3.50" shape="2538.95,570.20 2552.25,558.81"/>
        <lane id=":24_1_1" index="1" speed="13.89" length="17.51" width="3.50" shape="2541.31,572.78 2554.61,561.39"/>
    </edge>
    <edge id=":25_0" function="internal">
        <lane id=":25_0_0" index="0" speed="13.89" length="19.52" width="3.50" shape="2560.36,511.77 2565.28,515.91 2569.46,518.79 2573.08,520.94 2576.34,522.89"/>
    </edge>
    <edge id=":25_1" function="internal">
        <lane id=":25_1_0" index="0" speed="13.89" length="19.39" width="3.50" shape="2560.36,511.77 2564.51,515.82 2567.13,518.80 2569.62,521.92 2573.37,526.35"/>
        <lane id=":25_1_1" index="1" speed="13.89" length="19.39" width="3.50" shape="2557.99,514.35 2562.06,518.32 2564.63,521.26 2567.07,524.32 2570.75,528.68"/>
    </edge>
    <edge id=":26_0" function="internal">
        <lane id=":26_0_0" index="0" speed="6.95" length="10.26" width="3.50" shape="2302.08,791.93 2300.03,789.66 2297.89,788.51 2295.67,788.48 2293.36,789.55"/>
    </edge>
    <edge id=":26_1" function="internal">
        <lane id=":26_1_0" index="0" speed="13.89" length="28.15" width="3.50" shape="2304.93,789.90 2289.26,766.52"/>
    </edge>
    <edge id=":26_2" function="internal">
        <lane id=":26_2_0" index="0" speed="10.78" length="11.16" width="3.50" shape="2304.93,789.90 2300.89,782.76 2300.27,779.87"/>
    </edge>
    <edge id=":26_14" function="internal">
        <lane id=":26_14_0" index="0" speed="10.78" length="15.00" width="3.50" shape="2300.27,779.87 2299.55,776.51 2300.92,771.16 2305.00,766.70"/>
    </edge>
    <edge id=":26_3" function="internal">
        <lane id=":26_3_0" index="0" speed="7.67" length="13.05" width="3.50" shape="2312.88,777.39 2309.39,780.21 2307.38,782.90 2306.84,785.45 2307.78,787.87"/>
    </edge>
    <edge id=":26_4" function="internal">
        <lane id=":26_4_0" index="0" speed="13.89" length="22.95" width="3.50" shape="2312.88,777.39 2293.36,789.55"/>
        <lane id=":26_4_1" index="1" speed="13.89" length="22.95" width="3.50" shape="2310.80,774.57 2291.36,786.68"/>
    </edge>
    <edge id=":26_6" function="internal">
        <lane id=":26_6_0" index="0" speed="10.11" length="11.32" width="3.50" shape="2308.72,771.76 2303.54,774.14 2298.56,774.06 2298.00,773.76"/>
    </edge>
    <edge id=":26_15" function="internal">
        <lane id=":26_15_0" index="0" speed="10.11" length="11.51" width="3.50" shape="2298.00,773.76 2293.80,771.52 2289.26,766.52"/>
    </edge>
    <edge id=":26_7" function="internal">
        <lane id=":26_7_0" index="0" speed="6.59" length="9.35" width="3.50" shape="2294.88,762.52 2296.65,764.41 2298.58,765.26 2300.67,765.09 2302.92,763.89"/>
    </edge>
    <edge id=":26_8" function="internal">
        <lane id=":26_8_0" index="0" speed="13.89" length="28.15" width="3.50" shape="2292.03,764.55 2307.78,787.87"/>
    </edge>
    <edge id=":26_9" function="internal">
        <lane id=":26_9_0" index="0" speed="10.48" length="10.38" width="3.50" shape="2292.03,764.55 2295.83,771.39 2296.31,773.89"/>
    </edge>
    <edge id=":26_16" function="internal">
        <lane id=":26_16_0" index="0" speed="10.48" length="14.75" width="3.50" shape="2296.31,773.89 2296.98,777.36 2295.49,782.45 2291.36,786.68"/>
    </edge>
    <edge id=":26_10" function="internal">
        <lane id=":26_10_0" index="0" speed="7.59" length="12.72" width="3.50" shape="2284.51,776.81 2287.84,774.07 2289.75,771.44 2290.22,768.93 2289.26,766.52"/>
    </edge>
    <edge id=":26_11" function="internal">
        <lane id=":26_11_0" index="0" speed="13.89" length="22.55" width="3.50" shape="2284.51,776.81 2302.92,763.89"/>
        <lane id=":26_11_1" index="1" speed="13.89" length="22.55" width="3.50" shape="2286.50,779.69 2305.00,766.70"/>
    </edge>
    <edge id=":26_13" function="internal">
        <lane id=":26_13_0" index="0" speed="10.06" length="10.32" width="3.50" shape="2288.50,782.56 2293.60,780.20 2298.30,780.30"/>
    </edge>
    <edge id=":26_17" function="internal">
        <lane id=":26_17_0" index="0" speed="10.06" length="12.36" width="3.50" shape="2298.30,780.30 2298.52,780.30 2303.25,782.86 2307.78,787.87"/>
    </edge>
    <edge id=":27_0" function="internal">
        <lane id=":27_0_0" index="0" speed="13.89" length="15.72" width="3.50" shape="2323.30,815.68 2320.88,813.21 2318.03,811.28 2314.85,808.91 2311.46,805.11"/>
        <lane id=":27_0_1" index="1" speed="13.89" length="15.72" width="3.50" shape="2323.30,815.68 2314.32,803.07"/>
    </edge>
    <edge id=":28_0" function="internal">
        <lane id=":28_0_0" index="0" speed="13.89" length="10.38" width="3.50" shape="2276.42,742.45 2278.57,744.51 2280.69,745.41 2282.84,746.36 2285.07,748.57"/>
        <lane id=":28_0_1" index="1" speed="13.89" length="10.38" width="3.50" shape="2276.42,742.45 2282.21,750.59"/>
    </edge>
    <edge id=":29_0" function="internal">
        <lane id=":29_0_0" index="0" speed="13.89" length="23.64" width="3.50" shape="1872.24,1032.92 1853.52,1047.17"/>
        <lane id=":29_0_1" index="1" speed="13.89" length="23.64" width="3.50" shape="1872.24,1032.92 1866.91,1036.19 1862.41,1038.21 1857.63,1040.44 1851.47,1044.33"/>
        <lane id=":29_0_2" index="2" speed="13.89" length="23.64" width="3.50" shape="1870.20,1030.08 1851.47,1044.33"/>
        <lane id=":29_0_3" index="3" speed="13.89" length="23.64" width="3.50" shape="1870.20,1030.08 1864.88,1033.34 1860.37,1035.37 1855.58,1037.60 1849.42,1041.49"/>
    </edge>
    <edge id=":3_0" function="internal">
        <lane id=":3_0_0" index="0" speed="13.89" length="20.18" width="3.50" shape="3464.78,506.99 3458.85,507.44 3454.79,508.40 3450.71,509.34 3444.71,509.76"/>
        <lane id=":3_0_1" index="1" speed="13.89" length="20.18" width="3.50" shape="3464.78,506.99 3444.72,506.26"/>
        <lane id=":3_0_2" index="2" speed="13.89" length="20.18" width="3.50" shape="3464.76,503.49 3458.83,503.95 3454.78,504.90 3450.71,505.84 3444.72,506.26"/>
        <lane id=":3_0_3" index="3" speed="13.89" length="20.18" width="3.50" shape="3464.76,503.49 3444.73,502.76"/>
    </edge>
    <edge id=":30_0" function="internal">
        <lane id=":30_0_0" index="0" speed="7.33" length="11.00" width="3.50" shape="1793.20,1100.45 1790.71,1098.12 1788.29,1096.94 1785.93,1096.90 1783.65,1098.02"/>
    </edge>
    <edge id=":30_1" function="internal">
        <lane id=":30_1_0" index="0" speed="13.89" length="28.97" width="3.50" shape="1793.20,1100.45 1775.72,1077.15"/>
        <lane id=":30_1_1" index="1" speed="13.89" length="28.97" width="3.50" shape="1795.76,1098.06 1778.48,1075.01"/>
    </edge>
    <edge id=":30_3" function="internal">
        <lane id=":30_3_0" index="0" speed="10.42" length="12.98" width="3.50" shape="1798.31,1095.67 1793.98,1089.22 1792.84,1084.14"/>
    </edge>
    <edge id=":30_16" function="internal">
        <lane id=":30_16_0" index="0" speed="10.42" length="13.22" width="3.50" shape="1792.84,1084.14 1792.66,1083.31 1794.34,1077.94 1799.03,1073.10"/>
    </edge>
    <edge id=":30_4" function="internal">
        <lane id=":30_4_0" index="0" speed="6.36" length="9.30" width="3.50" shape="1805.46,1081.82 1803.60,1083.62 1802.85,1085.53 1803.22,1087.55 1804.71,1089.68"/>
    </edge>
    <edge id=":30_5" function="internal">
        <lane id=":30_5_0" index="0" speed="13.89" length="27.18" width="3.50" shape="1805.46,1081.82 1783.65,1098.02"/>
        <lane id=":30_5_1" index="1" speed="13.89" length="27.18" width="3.50" shape="1803.39,1079.00 1781.55,1095.21"/>
    </edge>
    <edge id=":30_7" function="internal">
        <lane id=":30_7_0" index="0" speed="10.78" length="11.32" width="3.50" shape="1801.31,1076.18 1794.61,1079.91 1791.01,1080.54"/>
    </edge>
    <edge id=":30_17" function="internal">
        <lane id=":30_17_0" index="0" speed="10.78" length="14.49" width="3.50" shape="1791.01,1080.54 1788.57,1080.96 1783.20,1079.33 1778.48,1075.01"/>
    </edge>
    <edge id=":30_8" function="internal">
        <lane id=":30_8_0" index="0" speed="7.15" length="11.16" width="3.50" shape="1787.44,1068.07 1789.66,1070.47 1791.98,1071.64 1794.41,1071.58 1796.96,1070.28"/>
    </edge>
    <edge id=":30_9" function="internal">
        <lane id=":30_9_0" index="0" speed="13.89" length="27.86" width="3.50" shape="1787.44,1068.07 1792.57,1075.17 1796.53,1080.36 1800.26,1084.81 1804.71,1089.68"/>
        <lane id=":30_9_1" index="1" speed="13.89" length="27.86" width="3.50" shape="1784.68,1070.21 1789.87,1077.41 1793.90,1082.68 1797.68,1087.18 1802.16,1092.07"/>
    </edge>
    <edge id=":30_11" function="internal">
        <lane id=":30_11_0" index="0" speed="10.73" length="11.59" width="3.50" shape="1781.91,1072.36 1785.82,1079.31 1786.55,1082.85"/>
    </edge>
    <edge id=":30_18" function="internal">
        <lane id=":30_18_0" index="0" speed="10.73" length="14.19" width="3.50" shape="1786.55,1082.85 1787.07,1085.44 1785.65,1090.74 1781.55,1095.21"/>
    </edge>
    <edge id=":30_12" function="internal">
        <lane id=":30_12_0" index="0" speed="6.66" length="9.63" width="3.50" shape="1774.22,1085.41 1776.21,1083.52 1777.12,1081.51 1776.96,1079.39 1775.72,1077.15"/>
    </edge>
    <edge id=":30_13" function="internal">
        <lane id=":30_13_0" index="0" speed="13.89" length="27.30" width="3.50" shape="1774.22,1085.41 1796.96,1070.28"/>
        <lane id=":30_13_1" index="1" speed="13.89" length="27.30" width="3.50" shape="1776.31,1088.21 1799.03,1073.10"/>
    </edge>
    <edge id=":30_15" function="internal">
        <lane id=":30_15_0" index="0" speed="11.29" length="12.95" width="3.50" shape="1778.41,1091.01 1784.98,1087.40 1790.35,1086.50"/>
    </edge>
    <edge id=":30_19" function="internal">
        <lane id=":30_19_0" index="0" speed="11.29" length="13.45" width="3.50" shape="1790.35,1086.50 1791.13,1086.37 1796.85,1087.93 1802.16,1092.07"/>
    </edge>
    <edge id=":31_0" function="internal">
        <lane id=":31_0_0" index="0" speed="13.89" length="25.70" width="3.50" shape="2216.15,823.69 2237.28,809.39"/>
        <lane id=":31_0_1" index="1" speed="13.89" length="25.70" width="3.50" shape="2216.15,823.69 2221.77,820.57 2226.84,818.63 2232.35,816.36 2239.27,812.27"/>
        <lane id=":31_0_2" index="2" speed="13.89" length="25.70" width="3.50" shape="2218.11,826.59 2239.27,812.27"/>
        <lane id=":31_0_3" index="3" speed="13.89" length="25.70" width="3.50" shape="2218.11,826.59 2223.73,823.47 2228.81,821.52 2234.32,819.24 2241.26,815.15"/>
    </edge>
    <edge id=":32_0" function="internal">
        <lane id=":32_0_0" index="0" speed="13.89" length="14.22" width="3.50" shape="1710.65,1132.05 1721.70,1123.45"/>
        <lane id=":32_0_1" index="1" speed="13.89" length="14.22" width="3.50" shape="1710.65,1132.05 1714.34,1129.98 1717.21,1129.18 1720.08,1128.37 1723.75,1126.28"/>
        <lane id=":32_0_2" index="2" speed="13.89" length="14.22" width="3.50" shape="1712.69,1134.89 1723.75,1126.28"/>