<?xml version="1.0" encoding="UTF-8"?>

<!-- generated on 2022-05-17 15:51:25 by Eclipse SUMO jtrrouter Version 1.12.0
<configuration xmlns:xsi="http://www.w3.org/2001/XMLSchema-instance" xsi:noNamespaceSchemaLocation="http://sumo.dlr.de/xsd/jtrrouterConfiguration.xsd">

    <input>
        <net-file value="networks/stalbert/stalbert_fixed.net.xml"/>
        <route-files value="networks/stalbert/stalbert_8-9pm_fixed.flows.xml"/>
        <turn-ratio-files value="networks/stalbert/stalbert_8-9pm_fixed.turns.xml"/>
    </input>

    <output>
        <output-file value="networks/stalbert/stalbert_8-9pm_fixed_jtr_43.rou.xml"/>
    </output>

    <processing>
        <no-internal-links value="false"/>
        <randomize-flows value="true"/>
        <repair value="true"/>
        <accept-all-destinations value="true"/>
    </processing>

    <defaults>
        <departlane value="best"/>
    </defaults>

    <time>
        <begin value="0"/>
        <end value="3600"/>
    </time>

    <random_number>
        <seed value="43"/>
    </random_number>

</configuration>
-->

<routes xmlns:xsi="http://www.w3.org/2001/XMLSchema-instance" xsi:noNamespaceSchemaLocation="http://sumo.dlr.de/xsd/routes_file.xsd">
    <vehicle id="fl30_st0.0.0" depart="4.38" departLane="best" color="68,242,219">
        <route edges="30 26 19 15 25 32 38 41 42 50 55 58 62 69 74 80 82 90 91 92 96"/>
    </vehicle>
    <vehicle id="fl30_st0.0.1" depart="4.40" departLane="best" color="68,242,219">
        <route edges="30 26 19 15 25 32 37"/>
    </vehicle>
    <vehicle id="fl3_st0.0.0" depart="5.31" departLane="best" color="68,242,219">
        <route edges="3 7 21 10 25 32 38 41 42 50 55 58 62 69 74 80 82 90 91 93 100"/>
    </vehicle>
    <vehicle id="fl119_st0.0.0" depart="6.16" departLane="best" color="68,242,219">
        <route edges="119 115 109 107 106 101 89 88 81 79 68 67 61 56 57 49 43 40 39 33 23 24 9 8 1"/>
    </vehicle>
    <vehicle id="fl35_st0.0.0" depart="8.78" departLane="best" color="68,242,219">
        <route edges="35 73 38 41 42 50 55 58 62 69 74 75"/>
    </vehicle>
    <vehicle id="fl104_st0.0.0" depart="9.64" departLane="best" color="68,242,219">
        <route edges="104 95 89 88 87"/>
    </vehicle>
    <vehicle id="fl30_st0.0.2" depart="10.87" departLane="best" color="68,242,219">
        <route edges="30 26 19 15 25 32 38 41 42 50 55 58 62 69 74 80 82 87"/>
    </vehicle>
    <vehicle id="fl3_st0.0.1" depart="10.93" departLane="best" color="68,242,219">
        <route edges="3 7 21 10 25 32 38 41 42 50 55 58 62 69 74 80 82 90 91 92 103 108 110 116 122"/>
    </vehicle>
    <vehicle id="fl18_st0.0.0" depart="18.48" departLane="best" color="68,242,219">
        <route edges="18 16 22 28 27"/>
    </vehicle>
    <vehicle id="fl20_st0.0.0" depart="20.01" departLane="best" color="68,242,219">
        <route edges="20 121 115 109 107 106 101 89 88 81 79 68 67 61 56 57 49 43 40 39 33 23 24 9 8 1"/>
    </vehicle>
    <vehicle id="fl4_st0.0.0" depart="20.04" departLane="best" color="68,242,219">
        <route edges="4 99 98 96"/>
    </vehicle>
    <vehicle id="fl30_st0.0.3" depart="20.23" departLane="best" color="68,242,219">
        <route edges="30 26 19 15 25 32 37"/>
    </vehicle>
    <vehicle id="fl30_st0.0.4" depart="20.98" departLane="best" color="68,242,219">
        <route edges="30 26 19 12 9 8 1"/>
    </vehicle>
    <vehicle id="fl104_st0.0.1" depart="24.73" departLane="best" color="68,242,219">
        <route edges="104 94 100"/>
    </vehicle>
    <vehicle id="fl36_st0.0.0" depart="25.51" departLane="best" color="68,242,219">
        <route edges="36 72 34"/>
    </vehicle>
    <vehicle id="fl4_st0.0.1" depart="26.30" departLane="best" color="68,242,219">
        <route edges="4 99 98 96"/>
    </vehicle>
    <vehicle id="fl118_st0.0.0" depart="26.67" departLane="best" color="68,242,219">
        <route edges="118 122"/>
    </vehicle>
    <vehicle id="fl30_st0.0.5" depart="26.89" departLane="best" color="68,242,219">
        <route edges="30 26 19 12 9 8 1"/>
    </vehicle>
    <vehicle id="fl4_st0.0.2" depart="27.22" departLane="best" color="68,242,219">
        <route edges="4 99 98 96"/>
    </vehicle>
    <vehicle id="fl47_st0.0.0" depart="28.65" departLane="best" color="68,242,219">
        <route edges="47 46 42 50 55 58 62 69 74 80 82 90 91 92 103 108 110 116 122"/>
    </vehicle>
    <vehicle id="fl4_st0.0.3" depart="30.24" departLane="best" color="68,242,219">
        <route edges="4 99 98 96"/>
    </vehicle>
    <vehicle id="fl104_st0.0.2" depart="30.66" departLane="best" color="68,242,219">
        <route edges="104 95 89 88 81 79 68 67 61 56 57 49 43 40 39 33 23 13 22 28 27"/>
    </vehicle>
    <vehicle id="fl104_st0.0.3" depart="31.15" departLane="best" color="68,242,219">
        <route edges="104 94 100"/>
    </vehicle>
    <vehicle id="fl4_st0.0.4" depart="32.58" departLane="best" color="68,242,219">
        <route edges="4 99 98 89 88 81 79 68 67 61 56 57 49 43 40 39 33 23 24 9 8 1"/>
    </vehicle>
    <vehicle id="fl30_st0.0.6" depart="34.07" departLane="best" color="68,242,219">
        <route edges="30 26 19 12 9 8 1"/>
    </vehicle>
    <vehicle id="fl30_st0.0.7" depart="34.13" departLane="best" color="68,242,219">
        <route edges="30 26 19 12 9 8 5"/>
    </vehicle>
    <vehicle id="fl63_st0.0.0" depart="35.30" departLane="best" color="68,242,219">
        <route edges="63 62 69 74 80 82 90 91 92 103 108 110 116 122"/>
    </vehicle>
    <vehicle id="fl4_st0.0.5" depart="35.40" departLane="best" color="68,242,219">
        <route edges="4 99 98 89 88 81 79 68 67 61 56 57 49 43 40 39 33 23 13 22 28 27"/>
    </vehicle>
    <vehicle id="fl47_st0.0.1" depart="36.41" departLane="best" color="68,242,219">
        <route edges="47 46 42 50 55 58 62 69 74 80 82 90 91 92 103 108 110 116 122"/>
    </vehicle>
    <vehicle id="fl104_st0.0.4" depart="37.64" departLane="best" color="68,242,219">
        <route edges="104 94 100"/>
    </vehicle>
    <vehicle id="fl20_st0.0.1" depart="38.86" departLane="best" color="68,242,219">
        <route edges="20 121 115 109 107 106 101 89 88 84"/>
    </vehicle>
    <vehicle id="fl47_st0.0.2" depart="40.00" departLane="best" color="68,242,219">
        <route edges="47 46 42 50 55 58 62 69 74 80 82 90 91 93 100"/>
    </vehicle>
    <vehicle id="fl104_st0.0.5" depart="40.29" departLane="best" color="68,242,219">
        <route edges="104 94 100"/>
    </vehicle>
    <vehicle id="fl3_st0.0.2" depart="44.79" departLane="best" color="68,242,219">
        <route edges="3 7 21 10 25 32 38 41 42 50 55 58 62 69 74 80 82 90 91 92 103 108 110 116 122"/>
    </vehicle>
    <vehicle id="fl83_st0.0.0" depart="50.47" departLane="best" color="68,242,219">
        <route edges="83 90 91 92 103 108 110 116 122"/>
    </vehicle>
    <vehicle id="fl30_st0.0.8" depart="50.61" departLane="best" color="68,242,219">
        <route edges="30 26 19 15 25 32 38 41 42 50 55 58 62 69 74 80 82 90 91 92 103 108 110 116 122"/>
    </vehicle>
    <vehicle id="fl30_st0.0.9" depart="51.41" departLane="best" color="68,242,219">
        <route edges="30 26 19 15 17"/>
    </vehicle>
    <vehicle id="fl47_st0.0.3" depart="51.64" departLane="best" color="68,242,219">
        <route edges="47 45 40 39 33 23 24 9 8 1"/>
    </vehicle>
    <vehicle id="fl4_st0.0.6" depart="51.73" departLane="best" color="68,242,219">
        <route edges="4 99 98 89 88 84"/>
    </vehicle>
    <vehicle id="fl30_st0.0.10" depart="51.82" departLane="best" color="68,242,219">
        <route edges="30 26 19 15 25 32 38 41 42 50 53"/>
    </vehicle>
    <vehicle id="fl63_st0.0.1" depart="52.94" departLane="best" color="68,242,219">
        <route edges="63 56 57 51"/>
    </vehicle>
    <vehicle id="fl30_st0.0.11" depart="55.11" departLane="best" color="68,242,219">
        <route edges="30 26 19 12 9 8 1"/>
    </vehicle>
    <vehicle id="fl54_st0.0.0" depart="56.00" departLane="best" color="68,242,219">
        <route edges="54 111 55 58 62 69 74 80 82 90 91 92 103 108 110 116 122"/>
    </vehicle>
    <vehicle id="fl4_st0.0.7" depart="61.24" departLane="best" color="68,242,219">
        <route edges="4 99 98 89 88 81 79 68 67 61 64"/>
    </vehicle>
    <vehicle id="fl86_st0.0.0" depart="61.48" departLane="best" color="68,242,219">
        <route edges="86 81 79 68 67 61 60"/>
    </vehicle>
    <vehicle id="fl3_st0.0.3" depart="64.61" departLane="best" color="68,242,219">
        <route edges="3 7 21 10 25 32 37"/>
    </vehicle>
    <vehicle id="fl20_st0.0.2" depart="66.14" departLane="best" color="68,242,219">
        <route edges="20 121 115 109 107 106 101 89 88 84"/>
    </vehicle>
    <vehicle id="fl4_st0.0.8" depart="66.81" departLane="best" color="68,242,219">
        <route edges="4 99 98 96"/>
    </vehicle>
    <vehicle id="fl18_st0.0.1" depart="68.85" departLane="best" color="68,242,219">
        <route edges="18 14 25 32 38 41 42 50 55 58 62 69 74 80 82 90 91 93 100"/>
    </vehicle>
    <vehicle id="fl6_st0.0.0" depart="68.99" departLane="best" color="68,242,219">
        <route edges="6 70 7 21 10 25 32 38 41 42 50 55 58 62 69 74 80 82 90 91 92 103 108 110 116 120"/>
    </vehicle>
    <vehicle id="fl18_st0.0.2" depart="70.18" departLane="best" color="68,242,219">
        <route edges="18 16 22 28 27"/>
    </vehicle>
    <vehicle id="fl119_st0.0.1" depart="70.55" departLane="best" color="68,242,219">
        <route edges="119 117"/>
    </vehicle>
    <vehicle id="fl104_st0.0.6" depart="70.94" departLane="best" color="68,242,219">
        <route edges="104 94 100"/>
    </vehicle>
    <vehicle id="fl104_st0.0.7" depart="71.65" departLane="best" color="68,242,219">
        <route edges="104 94 100"/>
    </vehicle>
    <vehicle id="fl20_st0.0.3" depart="72.53" departLane="best" color="68,242,219">
        <route edges="20 121 120"/>
    </vehicle>
    <vehicle id="fl52_st0.0.0" depart="72.85" departLane="best" color="68,242,219">
        <route edges="52 112 55 58 62 69 74 80 82 90 91 93 100"/>
    </vehicle>
    <vehicle id="fl59_st0.0.0" depart="73.14" departLane="best" color="68,242,219">
        <route edges="59 62 69 74 80 82 90 91 92 103 108 110 116 122"/>
    </vehicle>
    <vehicle id="fl4_st0.0.9" depart="73.78" departLane="best" color="68,242,219">
        <route edges="4 99 98 96"/>
    </vehicle>
    <vehicle id="fl18_st0.0.3" depart="73.95" departLane="best" color="68,242,219">
        <route edges="18 16 22 28 29"/>
    </vehicle>
    <vehicle id="fl6_st0.0.1" depart="74.20" departLane="best" color="68,242,219">
        <route edges="6 70 7 21 11 17"/>
    </vehicle>
    <vehicle id="fl104_st0.0.8" depart="74.60" departLane="best" color="68,242,219">
        <route edges="104 94 100"/>
    </vehicle>
    <vehicle id="fl4_st0.0.10" depart="74.72" departLane="best" color="68,242,219">
        <route edges="4 99 98 96"/>
    </vehicle>
    <vehicle id="fl104_st0.0.9" depart="76.57" departLane="best" color="68,242,219">
        <route edges="104 95 89 88 81 79 68 67 61 56 57 49 43 40 39 33 23 24 9 8 1"/>
    </vehicle>
    <vehicle id="fl54_st0.0.1" depart="76.94" departLane="best" color="68,242,219">
        <route edges="54 111 49 43 40 39 33 23 13 22 28 29"/>
    </vehicle>
    <vehicle id="fl18_st0.0.4" depart="77.56" departLane="best" color="68,242,219">
        <route edges="18 14 25 32 38 41 42 50 55 58 62 69 74 80 82 90 91 92 103 108 110 116 122"/>
    </vehicle>
    <vehicle id="fl83_st0.0.1" depart="77.88" departLane="best" color="68,242,219">
        <route edges="83 90 91 93 100"/>
    </vehicle>
    <vehicle id="fl30_st0.0.12" depart="77.99" departLane="best" color="68,242,219">
        <route edges="30 26 19 15 17"/>
    </vehicle>
    <vehicle id="fl119_st0.0.2" depart="78.38" departLane="best" color="68,242,219">
        <route edges="119 115 109 107 106 101 89 88 81 79 68 67 61 56 57 49 43 40 39 34"/>
    </vehicle>
    <vehicle id="fl59_st0.0.1" depart="79.73" departLane="best" color="68,242,219">
        <route edges="59 62 69 74 80 82 90 91 93 100"/>
    </vehicle>
    <vehicle id="fl4_st0.0.11" depart="82.32" departLane="best" color="68,242,219">
        <route edges="4 99 98 96"/>
    </vehicle>
    <vehicle id="fl104_st0.0.10" depart="82.43" departLane="best" color="68,242,219">
        <route edges="104 95 89 88 81 79 68 67 61 56 57 49 43 40 39 33 23 13 22 28 29"/>
    </vehicle>
    <vehicle id="fl63_st0.0.2" depart="84.87" departLane="best" color="68,242,219">
        <route edges="63 56 57 49 43 40 39 33 23 24 9 8 2"/>
    </vehicle>
    <vehicle id="fl30_st0.0.13" depart="85.62" departLane="best" color="68,242,219">
        <route edges="30 26 19 15 17"/>
    </vehicle>
    <vehicle id="fl35_st0.0.1" depart="86.51" departLane="best" color="68,242,219">
        <route edges="35 73 38 41 42 50 55 58 62 69 74 80 82 90 91 92 103 108 110 116 122"/>
    </vehicle>
    <vehicle id="fl63_st0.0.3" depart="87.11" departLane="best" color="68,242,219">
        <route edges="63 60"/>
    </vehicle>
    <vehicle id="fl30_st0.0.14" depart="87.29" departLane="best" color="68,242,219">
        <route edges="30 26 19 15 25 32 38 41 42 50 55 58 62 69 74 80 82 90 91 93 100"/>
    </vehicle>
    <vehicle id="fl59_st0.0.2" depart="94.21" departLane="best" color="68,242,219">
        <route edges="59 64"/>
    </vehicle>
    <vehicle id="fl47_st0.0.4" depart="94.38" departLane="best" color="68,242,219">
        <route edges="47 46 42 50 55 58 64"/>
    </vehicle>
    <vehicle id="fl47_st0.0.5" depart="96.67" departLane="best" color="68,242,219">
        <route edges="47 46 42 50 55 58 62 69 74 80 82 90 91 92 103 108 110 116 122"/>
    </vehicle>
    <vehicle id="fl104_st0.0.11" depart="99.20" departLane="best" color="68,242,219">
        <route edges="104 94 100"/>
    </vehicle>
    <vehicle id="fl31_st0.0.0" depart="99.89" departLane="best" color="68,242,219">
        <route edges="31 26 19 15 25 32 38 41 42 50 55 58 62 69 74 80 82 90 91 92 103 108 110 116 122"/>
    </vehicle>
    <vehicle id="fl86_st0.0.1" depart="101.23" departLane="best" color="68,242,219">
        <route edges="86 84"/>
    </vehicle>
    <vehicle id="fl63_st0.0.4" depart="103.94" departLane="best" color="68,242,219">
        <route edges="63 56 57 49 43 40 39 34"/>
    </vehicle>
    <vehicle id="fl35_st0.0.2" depart="104.49" departLane="best" color="68,242,219">
        <route edges="35 73 38 41 42 50 55 58 60"/>
    </vehicle>
    <vehicle id="fl119_st0.0.3" depart="104.59" departLane="best" color="68,242,219">
        <route edges="119 117"/>
    </vehicle>
    <vehicle id="fl20_st0.0.4" depart="104.74" departLane="best" color="68,242,219">
        <route edges="20 121 115 109 107 106 101 89 88 81 79 68 67 61 56 57 49 43 40 39 33 23 13 22 28 27"/>
    </vehicle>
    <vehicle id="fl4_st0.0.12" depart="104.98" departLane="best" color="68,242,219">
        <route edges="4 99 98 96"/>
    </vehicle>
    <vehicle id="fl118_st0.0.1" depart="107.25" departLane="best" color="68,242,219">
        <route edges="118 122"/>
    </vehicle>
    <vehicle id="fl31_st0.0.1" depart="107.30" departLane="best" color="68,242,219">
        <route edges="31 26 19 15 17"/>
    </vehicle>
    <vehicle id="fl104_st0.0.12" depart="110.85" departLane="best" color="68,242,219">
        <route edges="104 94 100"/>
    </vehicle>
    <vehicle id="fl104_st0.0.13" depart="112.15" departLane="best" color="68,242,219">
        <route edges="104 94 100"/>
    </vehicle>
    <vehicle id="fl63_st0.0.5" depart="113.12" departLane="best" color="68,242,219">
        <route edges="63 60"/>
    </vehicle>
    <vehicle id="fl30_st0.0.15" depart="113.38" departLane="best" color="68,242,219">
        <route edges="30 26 19 15 25 32 38 41 42 50 55 58 62 69 74 80 82 90 91 93 100"/>
    </vehicle>
    <vehicle id="fl18_st0.0.5" depart="113.46" departLane="best" color="68,242,219">
        <route edges="18 16 22 28 27"/>
    </vehicle>
    <vehicle id="fl3_st0.0.4" depart="114.21" departLane="best" color="68,242,219">
        <route edges="3 7 21 10 25 32 38 41 42 50 55 58 62 69 74 80 82 90 91 92 96"/>
    </vehicle>
    <vehicle id="fl20_st0.0.5" depart="114.62" departLane="best" color="68,242,219">
        <route edges="20 121 115 109 107 106 101 89 88 81 79 68 67 61 56 57 49 43 40 39 33 23 13 22 28 27"/>
    </vehicle>
    <vehicle id="fl30_st0.0.16" depart="114.82" departLane="best" color="68,242,219">
        <route edges="30 26 19 15 25 32 38 41 42 50 55 58 62 69 74 80 82 90 91 92 103 108 110 116 122"/>
    </vehicle>
    <vehicle id="fl4_st0.0.13" depart="116.21" departLane="best" color="68,242,219">
        <route edges="4 99 98 89 88 81 79 68 67 61 56 57 49 43 40 39 33 23 13 22 28 27"/>
    </vehicle>
    <vehicle id="fl4_st0.0.14" depart="116.47" departLane="best" color="68,242,219">
        <route edges="4 99 98 89 88 81 79 68 67 61 56 57 49 43 40 39 33 23 24 9 8 1"/>
    </vehicle>
    <vehicle id="fl6_st0.0.2" depart="116.64" departLane="best" color="68,242,219">
        <route edges="6 70 7 21 10 25 32 37"/>
    </vehicle>
    <vehicle id="fl47_st0.0.6" depart="117.72" departLane="best" color="68,242,219">
        <route edges="47 45 40 39 33 23 24 9 8 1"/>
    </vehicle>
    <vehicle id="fl30_st0.0.17" depart="120.97" departLane="best" color="68,242,219">
        <route edges="30 26 19 12 9 8 1"/>
    </vehicle>
    <vehicle id="fl20_st0.0.6" depart="122.15" departLane="best" color="68,242,219">
        <route edges="20 121 115 109 107 106 101 89 88 81 79 68 67 61 56 57 49 43 40 39 33 23 13 22 28 29"/>
    </vehicle>
    <vehicle id="fl30_st0.0.18" depart="124.49" departLane="best" color="68,242,219">
        <route edges="30 27"/>
    </vehicle>
    <vehicle id="fl30_st0.0.19" depart="125.59" departLane="best" color="68,242,219">
        <route edges="30 26 19 15 17"/>
    </vehicle>
    <vehicle id="fl83_st0.0.2" depart="128.81" departLane="best" color="68,242,219">
        <route edges="83 87"/>
    </vehicle>
    <vehicle id="fl30_st0.0.20" depart="129.80" departLane="best" color="68,242,219">
        <route edges="30 26 19 15 25 32 37"/>
    </vehicle>
    <vehicle id="fl104_st0.0.14" depart="130.14" departLane="best" color="68,242,219">
        <route edges="104 94 100"/>
    </vehicle>
    <vehicle id="fl83_st0.0.3" depart="131.88" departLane="best" color="68,242,219">
        <route edges="83 90 91 92 103 108 110 116 122"/>
    </vehicle>
    <vehicle id="fl104_st0.0.15" depart="132.14" departLane="best" color="68,242,219">
        <route edges="104 95 89 88 84"/>
    </vehicle>
    <vehicle id="fl20_st0.0.7" depart="132.49" departLane="best" color="68,242,219">
        <route edges="20 121 115 109 107 106 101 89 88 81 79 68 67 61 56 57 49 43 40 39 33 23 24 9 8 5"/>
    </vehicle>
    <vehicle id="fl119_st0.0.4" depart="133.55" departLane="best" color="68,242,219">
        <route edges="119 117"/>
    </vehicle>
    <vehicle id="fl4_st0.0.15" depart="134.51" departLane="best" color="68,242,219">
        <route edges="4 99 98 89 88 81 79 68 67 61 56 57 49 43 40 39 33 23 24 9 8 1"/>
    </vehicle>
    <vehicle id="fl76_st0.0.0" depart="134.65" departLane="best" color="68,242,219">
        <route edges="76 68 67 61 56 57 49 43 40 39 33 23 24 9 8 1"/>
    </vehicle>
    <vehicle id="fl83_st0.0.4" depart="134.87" departLane="best" color="68,242,219">
        <route edges="83 90 91 92 103 108 110 116 122"/>
    </vehicle>
    <vehicle id="fl104_st0.0.16" depart="134.95" departLane="best" color="68,242,219">
        <route edges="104 94 100"/>
    </vehicle>
    <vehicle id="fl47_st0.0.7" depart="135.23" departLane="best" color="68,242,219">
        <route edges="47 45 40 39 33 23 24 9 8 1"/>
    </vehicle>
    <vehicle id="fl30_st0.0.21" depart="135.72" departLane="best" color="68,242,219">
        <route edges="30 26 19 12 9 8 1"/>
    </vehicle>
    <vehicle id="fl20_st0.0.8" depart="136.17" departLane="best" color="68,242,219">
        <route edges="20 121 117"/>
    </vehicle>
    <vehicle id="fl30_st0.0.22" depart="139.29" departLane="best" color="68,242,219">
        <route edges="30 26 19 15 17"/>
    </vehicle>
    <vehicle id="fl104_st0.0.17" depart="142.45" departLane="best" color="68,242,219">
        <route edges="104 95 89 88 81 79 68 67 61 56 57 49 43 40 39 33 23 24 9 8 1"/>
    </vehicle>
    <vehicle id="fl76_st0.0.1" depart="144.59" departLane="best" color="68,242,219">
        <route edges="76 68 67 61 56 57 49 43 40 39 33 23 24 9 8 1"/>
    </vehicle>
    <vehicle id="fl86_st0.0.2" depart="146.11" departLane="best" color="68,242,219">
        <route edges="86 90 91 93 100"/>
    </vehicle>
    <vehicle id="fl3_st0.0.5" depart="147.39" departLane="best" color="68,242,219">
        <route edges="3 7 21 10 25 32 38 41 42 50 55 58 62 69 74 80 82 90 91 92 103 108 110 116 122"/>
    </vehicle>
    <vehicle id="fl76_st0.0.2" depart="148.10" departLane="best" color="68,242,219">
        <route edges="76 68 67 61 56 57 49 43 40 39 33 23 13 22 28 27"/>
    </vehicle>
    <vehicle id="fl30_st0.0.23" depart="149.54" departLane="best" color="68,242,219">
        <route edges="30 26 19 15 25 32 38 41 42 50 55 58 62 69 74 77"/>
    </vehicle>
    <vehicle id="fl20_st0.0.9" depart="153.92" departLane="best" color="68,242,219">
        <route edges="20 121 115 109 107 106 101 89 88 81 79 68 67 61 56 57 49 43 40 39 33 23 13 22 28 29"/>
    </vehicle>
    <vehicle id="fl20_st0.0.10" depart="154.27" departLane="best" color="68,242,219">
        <route edges="20 121 120"/>
    </vehicle>
    <vehicle id="fl4_st0.0.16" depart="154.79" departLane="best" color="68,242,219">
        <route edges="4 99 97 103 108 110 116 122"/>
    </vehicle>
    <vehicle id="fl20_st0.0.11" depart="155.01" departLane="best" color="68,242,219">
        <route edges="20 121 115 109 107 106 101 89 88 81 79 68 67 61 56 57 49 43 40 39 33 23 13 22 28 29"/>
    </vehicle>
    <vehicle id="fl104_st0.0.18" depart="155.36" departLane="best" color="68,242,219">
        <route edges="104 95 89 88 84"/>
    </vehicle>
    <vehicle id="fl47_st0.0.8" depart="156.77" departLane="best" color="68,242,219">
        <route edges="47 46 42 50 55 58 62 69 74 80 82 90 91 92 103 108 110 116 122"/>
    </vehicle>
    <vehicle id="fl104_st0.0.19" depart="156.90" departLane="best" color="68,242,219">
        <route edges="104 95 89 88 81 79 68 67 61 64"/>
    </vehicle>
    <vehicle id="fl119_st0.0.5" depart="156.94" departLane="best" color="68,242,219">
        <route edges="119 115 109 107 106 101 89 88 81 79 68 67 61 56 57 49 43 40 39 33 23 24 9 8 2"/>
    </vehicle>
    <vehicle id="fl30_st0.0.24" depart="160.20" departLane="best" color="68,242,219">
        <route edges="30 26 19 15 25 32 34"/>
    </vehicle>
    <vehicle id="fl119_st0.0.6" depart="163.59" departLane="best" color="68,242,219">
        <route edges="119 117"/>
    </vehicle>
    <vehicle id="fl30_st0.0.25" depart="163.87" departLane="best" color="68,242,219">
        <route edges="30 26 19 15 25 32 38 41 42 50 53"/>
    </vehicle>
    <vehicle id="fl30_st0.0.26" depart="167.28" departLane="best" color="68,242,219">
        <route edges="30 26 19 12 9 8 1"/>
    </vehicle>
    <vehicle id="fl63_st0.0.6" depart="167.38" departLane="best" color="68,242,219">
        <route edges="63 60"/>
    </vehicle>
    <vehicle id="fl30_st0.0.27" depart="168.19" departLane="best" color="68,242,219">
        <route edges="30 26 19 15 25 32 38 41 48"/>
    </vehicle>
    <vehicle id="fl30_st0.0.28" depart="169.03" departLane="best" color="68,242,219">
        <route edges="30 26 19 15 25 32 38 41 42 50 55 58 62 69 74 80 82 90 91 93 100"/>
    </vehicle>
    <vehicle id="fl35_st0.0.3" depart="169.13" departLane="best" color="68,242,219">
        <route edges="35 73 33 23 24 9 8 1"/>
    </vehicle>
    <vehicle id="fl119_st0.0.7" depart="169.20" departLane="best" color="68,242,219">
        <route edges="119 117"/>
    </vehicle>
    <vehicle id="fl20_st0.0.12" depart="169.30" departLane="best" color="68,242,219">
        <route edges="20 121 117"/>
    </vehicle>
    <vehicle id="fl63_st0.0.7" depart="170.65" departLane="best" color="68,242,219">
        <route edges="63 62 69 74 80 82 90 91 92 96"/>
    </vehicle>
    <vehicle id="fl18_st0.0.6" depart="171.38" departLane="best" color="68,242,219">
        <route edges="18 14 25 32 38 41 42 50 55 58 62 69 74 80 82 90 91 92 103 108 110 116 122"/>
    </vehicle>
    <vehicle id="fl30_st0.0.29" depart="171.38" departLane="best" color="68,242,219">
        <route edges="30 26 19 15 17"/>
    </vehicle>
    <vehicle id="fl119_st0.0.8" depart="173.35" departLane="best" color="68,242,219">
        <route edges="119 117"/>
    </vehicle>
    <vehicle id="fl119_st0.0.9" depart="173.46" departLane="best" color="68,242,219">
        <route edges="119 117"/>
    </vehicle>
    <vehicle id="fl30_st0.0.30" depart="173.51" departLane="best" color="68,242,219">
        <route edges="30 26 19 15 25 32 38 41 42 50 55 58 62 69 74 80 82 90 91 93 100"/>
    </vehicle>
    <vehicle id="fl119_st0.0.10" depart="179.05" departLane="best" color="68,242,219">
        <route edges="119 117"/>
    </vehicle>
    <vehicle id="fl104_st0.0.20" depart="181.69" departLane="best" color="68,242,219">
        <route edges="104 95 89 88 84"/>
    </vehicle>
    <vehicle id="fl30_st0.0.31" depart="182.61" departLane="best" color="68,242,219">
        <route edges="30 26 19 15 17"/>
    </vehicle>
    <vehicle id="fl63_st0.0.8" depart="182.62" departLane="best" color="68,242,219">
        <route edges="63 56 57 49 43 40 39 34"/>
    </vehicle>
    <vehicle id="fl30_st0.0.32" depart="182.74" departLane="best" color="68,242,219">
        <route edges="30 26 19 15 25 32 38 41 42 50 55 58 62 69 74 80 82 90 91 92 96"/>
    </vehicle>
    <vehicle id="fl47_st0.0.9" depart="183.32" departLane="best" color="68,242,219">
        <route edges="47 46 42 50 55 58 62 69 74 80 82 90 91 92 103 108 110 116 122"/>
    </vehicle>
    <vehicle id="fl18_st0.0.7" depart="187.27" departLane="best" color="68,242,219">
        <route edges="18 14 25 32 38 41 42 50 55 58 62 69 74 80 82 90 91 93 100"/>
    </vehicle>
    <vehicle id="fl3_st0.0.6" depart="188.50" departLane="best" color="68,242,219">
        <route edges="3 7 21 10 25 32 38 41 42 50 55 58 62 69 74 80 82 90 91 93 100"/>
    </vehicle>
    <vehicle id="fl4_st0.0.17" depart="191.47" departLane="best" color="68,242,219">
        <route edges="4 99 98 89 88 81 79 68 67 61 56 57 49 43 40 39 33 23 24 9 8 1"/>
    </vehicle>
    <vehicle id="fl63_st0.0.9" depart="192.00" departLane="best" color="68,242,219">
        <route edges="63 56 57 49 43 40 39 34"/>
    </vehicle>
    <vehicle id="fl3_st0.0.7" depart="195.59" departLane="best" color="68,242,219">
        <route edges="3 7 21 10 25 32 38 41 42 50 55 58 62 69 74 80 82 90 91 92 103 108 110 116 122"/>
    </vehicle>
    <vehicle id="fl30_st0.0.33" depart="195.98" departLane="best" color="68,242,219">
        <route edges="30 26 19 15 25 32 38 41 42 50 55 58 62 69 74 80 82 90 91 92 103 108 110 116 122"/>
    </vehicle>
    <vehicle id="fl47_st0.0.10" depart="197.16" departLane="best" color="68,242,219">
        <route edges="47 45 40 39 33 23 13 22 28 29"/>
    </vehicle>
    <vehicle id="fl4_st0.0.18" depart="198.67" departLane="best" color="68,242,219">
        <route edges="4 99 98 96"/>
    </vehicle>
    <vehicle id="fl118_st0.0.2" depart="200.90" departLane="best" color="68,242,219">
        <route edges="118 120"/>
    </vehicle>
    <vehicle id="fl63_st0.0.10" depart="202.45" departLane="best" color="68,242,219">
        <route edges="63 56 57 49 43 40 39 33 23 13 22 28 27"/>
    </vehicle>
    <vehicle id="fl30_st0.0.34" depart="203.31" departLane="best" color="68,242,219">
        <route edges="30 26 19 15 25 32 38 41 42 50 55 58 62 69 74 80 82 90 91 92 103 108 110 116 122"/>
    </vehicle>
    <vehicle id="fl4_st0.0.19" depart="204.15" departLane="best" color="68,242,219">
        <route edges="4 99 97 103 108 110 116 122"/>
    </vehicle>
    <vehicle id="fl4_st0.0.20" depart="205.13" departLane="best" color="68,242,219">
        <route edges="4 99 97 103 108 110 116 122"/>
    </vehicle>
    <vehicle id="fl118_st0.0.3" depart="206.59" departLane="best" color="68,242,219">
        <route edges="118 115 109 107 106 101 89 88 81 79 68 67 61 56 57 49 43 40 39 33 23 24 9 8 1"/>
    </vehicle>
    <vehicle id="fl30_st0.0.35" depart="206.74" departLane="best" color="68,242,219">
        <route edges="30 26 19 15 25 32 37"/>
    </vehicle>
    <vehicle id="fl47_st0.0.11" depart="208.70" departLane="best" color="68,242,219">
        <route edges="47 45 40 39 33 23 13 22 28 29"/>
    </vehicle>
    <vehicle id="fl4_st0.0.21" depart="208.86" departLane="best" color="68,242,219">
        <route edges="4 99 98 89 88 81 79 68 67 61 56 57 49 43 40 39 33 23 13 22 28 29"/>
    </vehicle>
    <vehicle id="fl4_st0.0.22" depart="211.33" departLane="best" color="68,242,219">
        <route edges="4 99 98 96"/>
    </vehicle>
    <vehicle id="fl4_st0.0.23" depart="215.12" departLane="best" color="68,242,219">
        <route edges="4 99 98 89 88 84"/>
    </vehicle>
    <vehicle id="fl118_st0.0.4" depart="216.05" departLane="best" color="68,242,219">
        <route edges="118 115 109 107 106 101 89 88 84"/>
    </vehicle>
    <vehicle id="fl104_st0.0.21" depart="218.37" departLane="best" color="68,242,219">
        <route edges="104 95 89 88 81 79 68 67 61 64"/>
    </vehicle>
    <vehicle id="fl20_st0.0.13" depart="220.22" departLane="best" color="68,242,219">
        <route edges="20 121 115 109 107 106 101 89 88 81 79 75"/>
    </vehicle>
    <vehicle id="fl4_st0.0.24" depart="224.11" departLane="best" color="68,242,219">
        <route edges="4 99 98 89 88 81 79 68 67 61 56 57 49 43 40 39 33 23 24 9 8 2"/>
    </vehicle>
    <vehicle id="fl76_st0.0.3" depart="224.32" departLane="best" color="68,242,219">
        <route edges="76 80 82 90 91 93 100"/>
    </vehicle>