<?xml version="1.0" encoding="UTF-8"?>
<routes xmlns:xsi="http://www.w3.org/2001/XMLSchema-instance" xsi:noNamespaceSchemaLocation="http://sumo.dlr.de/xsd/routes_file.xsd">

<vType id="noVar" speedFactor="1.0" speedDev="0.0"/>
<route id="route_RLflow.0" edges="inR notinR outL" />
<vehicle type="noVar" depart="0" id="RLflow.0" route="route_RLflow.0" />
<route id="route_LUflow.0" edges="inL notoutU E4 E5 outR2" />
<vehicle type="noVar" depart="0" id="LUflow.0" route="route_LUflow.0" />
<route id="route_UD1flow.0" edges="inU1 notinU outD1" />
<vehicle type="noVar" depart="0" id="UD1flow.0" route="route_UD1flow.0" />
<route id="route_UD2flow.0" edges="inU2a outD2" />
<vehicle type="noVar" depart="0" id="UD2flow.0" route="route_UD2flow.0" />
<route id="route_RLflow.1" edges="inR notinR outL" />
<vehicle type="noVar" depart="4" id="RLflow.1" route="route_RLflow.1" />
<route id="route_RLflow.2" edges="inR notinR outL" />
<vehicle type="noVar" depart="8" id="RLflow.2" route="route_RLflow.2" />
<route id="route_UD1flow.1" edges="inU1 notinU outD1" />
<vehicle type="noVar" depart="10" id="UD1flow.1" route="route_UD1flow.1" />
<route id="route_UD2flow.1" edges="inU2a outD2" />
<vehicle type="noVar" depart="10" id="UD2flow.1" route="route_UD2flow.1" />
<route id="route_RLflow.3" edges="inR notinR outL" />
<vehicle type="noVar" depart="12" id="RLflow.3" route="route_RLflow.3" />
<route id="route_RLflow.4" edges="inR notinR outL" />
<vehicle type="noVar" depart="16" id="RLflow.4" route="route_RLflow.4" />
<route id="route_RLflow.5" edges="inR notinR outL" />
<vehicle type="noVar" depart="20" id="RLflow.5" route="route_RLflow.5" />
<route id="route_UD1flow.2" edges="inU1 notinU outD1" />
<vehicle type="noVar" depart="20" id="UD1flow.2" route="route_UD1flow.2" />
<route id="route_UD2flow.2" edges="inU2a outD2" />
<vehicle type="noVar" depart="20" id="UD2flow.2" route="route_UD2flow.2" />
<route id="route_RLflow.6" edges="inR notinR outL" />
<vehicle type="noVar" depart="24" id="RLflow.6" route="route_RLflow.6" />
<route id="route_RLflow.7" edges="inR notinR outL" />
<vehicle type="noVar" depart="28" id="RLflow.7" route="route_RLflow.7" />
<route id="route_UD1flow.3" edges="inU1 notinU outD1" />
<vehicle type="noVar" depart="30" id="UD1flow.3" route="route_UD1flow.3" />
<route id="route_UD2flow.3" edges="inU2a outD2" />
<vehicle type="noVar" depart="30" id="UD2flow.3" route="route_UD2flow.3" />
<route id="route_RLflow.8" edges="inR notinR outL" />
<vehicle type="noVar" depart="32" id="RLflow.8" route="route_RLflow.8" />
<route id="route_RLflow.9" edges="inR notinR outL" />
<vehicle type="noVar" depart="36" id="RLflow.9" route="route_RLflow.9" />
<route id="route_RLflow.10" edges="inR notinR outL" />
<vehicle type="noVar" depart="40" id="RLflow.10" route="route_RLflow.10" />
<route id="route_UD1flow.4" edges="inU1 notinU outD1" />
<vehicle type="noVar" depart="40" id="UD1flow.4" route="route_UD1flow.4" />
<route id="route_UD2flow.4" edges="inU2a outD2" />
<vehicle type="noVar" depart="40" id="UD2flow.4" route="route_UD2flow.4" />
<route id="route_RLflow.11" edges="inR notinR outL" />
<vehicle type="noVar" depart="44" id="RLflow.11" route="route_RLflow.11" />
<route id="route_RLflow.12" edges="inR notinR outL" />
<vehicle type="noVar" depart="48" id="RLflow.12" route="route_RLflow.12" />
<route id="route_UD1flow.5" edges="inU1 notinU outD1" />
<vehicle type="noVar" depart="50" id="UD1flow.5" route="route_UD1flow.5" />
<route id="route_UD2flow.5" edges="inU2a outD2" />
<vehicle type="noVar" depart="50" id="UD2flow.5" route="route_UD2flow.5" />
<route id="route_RLflow.13" edges="inR notinR outL" />
<vehicle type="noVar" depart="52" id="RLflow.13" route="route_RLflow.13" />
<route id="route_RLflow.14" edges="inR notinR outL" />
<vehicle type="noVar" depart="56" id="RLflow.14" route="route_RLflow.14" />
<route id="route_RLflow.15" edges="inR notinR outL" />
<vehicle type="noVar" depart="60" id="RLflow.15" route="route_RLflow.15" />
<route id="route_UD1flow.6" edges="inU1 notinU outD1" />
<vehicle type="noVar" depart="60" id="UD1flow.6" route="route_UD1flow.6" />
<route id="route_UD2flow.6" edges="inU2a outD2" />
<vehicle type="noVar" depart="60" id="UD2flow.6" route="route_UD2flow.6" />
<route id="route_RLflow.16" edges="inR notinR outL" />
<vehicle type="noVar" depart="64" id="RLflow.16" route="route_RLflow.16" />
<route id="route_RLflow.17" edges="inR notinR outL" />
<vehicle type="noVar" depart="68" id="RLflow.17" route="route_RLflow.17" />
<route id="route_UD1flow.7" edges="inU1 notinU outD1" />
<vehicle type="noVar" depart="70" id="UD1flow.7" route="route_UD1flow.7" />
<route id="route_UD2flow.7" edges="inU2a outD2" />
<vehicle type="noVar" depart="70" id="UD2flow.7" route="route_UD2flow.7" />
<route id="route_RLflow.18" edges="inR notinR outL" />
<vehicle type="noVar" depart="72" id="RLflow.18" route="route_RLflow.18" />
<route id="route_RLflow.19" edges="inR notinR outL" />
<vehicle type="noVar" depart="76" id="RLflow.19" route="route_RLflow.19" />
<route id="route_RLflow.20" edges="inR notinR outL" />
<vehicle type="noVar" depart="80" id="RLflow.20" route="route_RLflow.20" />
<route id="route_UD1flow.8" edges="inU1 notinU outD1" />
<vehicle type="noVar" depart="80" id="UD1flow.8" route="route_UD1flow.8" />
<route id="route_UD2flow.8" edges="inU2a outD2" />
<vehicle type="noVar" depart="80" id="UD2flow.8" route="route_UD2flow.8" />
<route id="route_LUflow.1" edges="inL notoutU E4 E5 outR2" />
<vehicle type="noVar" depart="81" id="LUflow.1" route="route_LUflow.1" />
<route id="route_RLflow.21" edges="inR notinR outL" />
<vehicle type="noVar" depart="84" id="RLflow.21" route="route_RLflow.21" />
<route id="route_RLflow.22" edges="inR notinR outL" />
<vehicle type="noVar" depart="88" id="RLflow.22" route="route_RLflow.22" />
<route id="route_UD1flow.9" edges="inU1 notinU outD1" />
<vehicle type="noVar" depart="90" id="UD1flow.9" route="route_UD1flow.9" />
<route id="route_UD2flow.9" edges="inU2a outD2" />
<vehicle type="noVar" depart="90" id="UD2flow.9" route="route_UD2flow.9" />
<route id="route_RLflow.23" edges="inR notinR outL" />
<vehicle type="noVar" depart="92" id="RLflow.23" route="route_RLflow.23" />
<route id="route_RLflow.24" edges="inR notinR outL" />
<vehicle type="noVar" depart="96" id="RLflow.24" route="route_RLflow.24" />
<route id="route_RLflow.25" edges="inR notinR outL" />
<vehicle type="noVar" depart="100" id="RLflow.25" route="route_RLflow.25" />
<route id="route_UD1flow.10" edges="inU1 notinU outD1" />
<vehicle type="noVar" depart="100" id="UD1flow.10" route="route_UD1flow.10" />
<route id="route_UD2flow.10" edges="inU2a outD2" />
<vehicle type="noVar" depart="100" id="UD2flow.10" route="route_UD2flow.10" />
<route id="route_RLflow.26" edges="inR notinR outL" />
<vehicle type="noVar" depart="104" id="RLflow.26" route="route_RLflow.26" />
<route id="route_RLflow.27" edges="inR notinR outL" />
<vehicle type="noVar" depart="108" id="RLflow.27" route="route_RLflow.27" />
<route id="route_UD1flow.11" edges="inU1 notinU outD1" />
<vehicle type="noVar" depart="110" id="UD1flow.11" route="route_UD1flow.11" />
<route id="route_UD2flow.11" edges="inU2a outD2" />
<vehicle type="noVar" depart="110" id="UD2flow.11" route="route_UD2flow.11" />
<route id="route_RLflow.28" edges="inR notinR outL" />
<vehicle type="noVar" depart="112" id="RLflow.28" route="route_RLflow.28" />
<route id="route_RLflow.29" edges="inR notinR outL" />
<vehicle type="noVar" depart="116" id="RLflow.29" route="route_RLflow.29" />
<route id="route_RLflow.30" edges="inR notinR outL" />
<vehicle type="noVar" depart="120" id="RLflow.30" route="route_RLflow.30" />
<route id="route_UD1flow.12" edges="inU1 notinU outD1" />
<vehicle type="noVar" depart="120" id="UD1flow.12" route="route_UD1flow.12" />
<route id="route_UD2flow.12" edges="inU2a outD2" />
<vehicle type="noVar" depart="120" id="UD2flow.12" route="route_UD2flow.12" />
<route id="route_RLflow.31" edges="inR notinR outL" />
<vehicle type="noVar" depart="124" id="RLflow.31" route="route_RLflow.31" />
<route id="route_RLflow.32" edges="inR notinR outL" />
<vehicle type="noVar" depart="128" id="RLflow.32" route="route_RLflow.32" />
<route id="route_UD1flow.13" edges="inU1 notinU outD1" />
<vehicle type="noVar" depart="130" id="UD1flow.13" route="route_UD1flow.13" />
<route id="route_UD2flow.13" edges="inU2a outD2" />
<vehicle type="noVar" depart="130" id="UD2flow.13" route="route_UD2flow.13" />
<route id="route_RLflow.33" edges="inR notinR outL" />
<vehicle type="noVar" depart="132" id="RLflow.33" route="route_RLflow.33" />
<route id="route_RLflow.34" edges="inR notinR outL" />
<vehicle type="noVar" depart="136" id="RLflow.34" route="route_RLflow.34" />
<route id="route_RLflow.35" edges="inR notinR outL" />
<vehicle type="noVar" depart="140" id="RLflow.35" route="route_RLflow.35" />
<route id="route_UD1flow.14" edges="inU1 notinU outD1" />
<vehicle type="noVar" depart="140" id="UD1flow.14" route="route_UD1flow.14" />
<route id="route_UD2flow.14" edges="inU2a outD2" />
<vehicle type="noVar" depart="140" id="UD2flow.14" route="route_UD2flow.14" />
<route id="route_RLflow.36" edges="inR notinR outL" />
<vehicle type="noVar" depart="144" id="RLflow.36" route="route_RLflow.36" />
<route id="route_RLflow.37" edges="inR notinR outL" />
<vehicle type="noVar" depart="148" id="RLflow.37" route="route_RLflow.37" />
<route id="route_UD1flow.15" edges="inU1 notinU outD1" />
<vehicle type="noVar" depart="150" id="UD1flow.15" route="route_UD1flow.15" />
<route id="route_UD2flow.15" edges="inU2a outD2" />
<vehicle type="noVar" depart="150" id="UD2flow.15" route="route_UD2flow.15" />
<route id="route_RLflow.38" edges="inR notinR outL" />
<vehicle type="noVar" depart="152" id="RLflow.38" route="route_RLflow.38" />
<route id="route_RLflow.39" edges="inR notinR outL" />
<vehicle type="noVar" depart="156" id="RLflow.39" route="route_RLflow.39" />
<route id="route_RLflow.40" edges="inR notinR outL" />
<vehicle type="noVar" depart="160" id="RLflow.40" route="route_RLflow.40" />
<route id="route_UD1flow.16" edges="inU1 notinU outD1" />
<vehicle type="noVar" depart="160" id="UD1flow.16" route="route_UD1flow.16" />
<route id="route_UD2flow.16" edges="inU2a outD2" />
<vehicle type="noVar" depart="160" id="UD2flow.16" route="route_UD2flow.16" />
<route id="route_LUflow.2" edges="inL notoutU E4 E5 outR2" />
<vehicle type="noVar" depart="163" id="LUflow.2" route="route_LUflow.2" />
<route id="route_RLflow.41" edges="inR notinR outL" />
<vehicle type="noVar" depart="164" id="RLflow.41" route="route_RLflow.41" />
<route id="route_RLflow.42" edges="inR notinR outL" />
<vehicle type="noVar" depart="168" id="RLflow.42" route="route_RLflow.42" />
<route id="route_UD1flow.17" edges="inU1 notinU outD1" />
<vehicle type="noVar" depart="170" id="UD1flow.17" route="route_UD1flow.17" />
<route id="route_UD2flow.17" edges="inU2a outD2" />
<vehicle type="noVar" depart="170" id="UD2flow.17" route="route_UD2flow.17" />
<route id="route_RLflow.43" edges="inR notinR outL" />
<vehicle type="noVar" depart="172" id="RLflow.43" route="route_RLflow.43" />
<route id="route_RLflow.44" edges="inR notinR outL" />
<vehicle type="noVar" depart="176" id="RLflow.44" route="route_RLflow.44" />
<route id="route_RLflow.45" edges="inR notinR outL" />
<vehicle type="noVar" depart="180" id="RLflow.45" route="route_RLflow.45" />
<route id="route_UD1flow.18" edges="inU1 notinU outD1" />
<vehicle type="noVar" depart="180" id="UD1flow.18" route="route_UD1flow.18" />
<route id="route_UD2flow.18" edges="inU2a outD2" />
<vehicle type="noVar" depart="180" id="UD2flow.18" route="route_UD2flow.18" />
<route id="route_RLflow.46" edges="inR notinR outL" />
<vehicle type="noVar" depart="184" id="RLflow.46" route="route_RLflow.46" />
<route id="route_RLflow.47" edges="inR notinR outL" />
<vehicle type="noVar" depart="188" id="RLflow.47" route="route_RLflow.47" />
<route id="route_UD1flow.19" edges="inU1 notinU outD1" />
<vehicle type="noVar" depart="190" id="UD1flow.19" route="route_UD1flow.19" />
<route id="route_UD2flow.19" edges="inU2a outD2" />
<vehicle type="noVar" depart="190" id="UD2flow.19" route="route_UD2flow.19" />
<route id="route_RLflow.48" edges="inR notinR outL" />
<vehicle type="noVar" depart="192" id="RLflow.48" route="route_RLflow.48" />
<route id="route_RLflow.49" edges="inR notinR outL" />
<vehicle type="noVar" depart="196" id="RLflow.49" route="route_RLflow.49" />
<route id="route_RLflow.50" edges="inR notinR outL" />
<vehicle type="noVar" depart="200" id="RLflow.50" route="route_RLflow.50" />
<route id="route_UD1flow.20" edges="inU1 notinU outD1" />
<vehicle type="noVar" depart="200" id="UD1flow.20" route="route_UD1flow.20" />
<route id="route_UD2flow.20" edges="inU2a outD2" />
<vehicle type="noVar" depart="200" id="UD2flow.20" route="route_UD2flow.20" />
<route id="route_RLflow.51" edges="inR notinR outL" />
<vehicle type="noVar" depart="204" id="RLflow.51" route="route_RLflow.51" />
<route id="route_RLflow.52" edges="inR notinR outL" />
<vehicle type="noVar" depart="208" id="RLflow.52" route="route_RLflow.52" />
<route id="route_UD1flow.21" edges="inU1 notinU outD1" />
<vehicle type="noVar" depart="210" id="UD1flow.21" route="route_UD1flow.21" />
<route id="route_UD2flow.21" edges="inU2a outD2" />
<vehicle type="noVar" depart="210" id="UD2flow.21" route="route_UD2flow.21" />
<route id="route_RLflow.53" edges="inR notinR outL" />
<vehicle type="noVar" depart="212" id="RLflow.53" route="route_RLflow.53" />
<route id="route_RLflow.54" edges="inR notinR outL" />
<vehicle type="noVar" depart="216" id="RLflow.54" route="route_RLflow.54" />
<route id="route_RLflow.55" edges="inR notinR outL" />
<vehicle type="noVar" depart="220" id="RLflow.55" route="route_RLflow.55" />
<route id="route_UD1flow.22" edges="inU1 notinU outD1" />
<vehicle type="noVar" depart="220" id="UD1flow.22" route="route_UD1flow.22" />
<route id="route_UD2flow.22" edges="inU2a outD2" />
<vehicle type="noVar" depart="220" id="UD2flow.22" route="route_UD2flow.22" />
<route id="route_RLflow.56" edges="inR notinR outL" />
<vehicle type="noVar" depart="224" id="RLflow.56" route="route_RLflow.56" />
<route id="route_RLflow.57" edges="inR notinR outL" />
<vehicle type="noVar" depart="228" id="RLflow.57" route="route_RLflow.57" />
<route id="route_UD1flow.23" edges="inU1 notinU outD1" />
<vehicle type="noVar" depart="230" id="UD1flow.23" route="route_UD1flow.23" />
<route id="route_UD2flow.23" edges="inU2a outD2" />
<vehicle type="noVar" depart="230" id="UD2flow.23" route="route_UD2flow.23" />
<route id="route_RLflow.58" edges="inR notinR outL" />
<vehicle type="noVar" depart="232" id="RLflow.58" route="route_RLflow.58" />
<route id="route_RLflow.59" edges="inR notinR outL" />
<vehicle type="noVar" depart="236" id="RLflow.59" route="route_RLflow.59" />
<route id="route_RLflow.60" edges="inR notinR outL" />
<vehicle type="noVar" depart="240" id="RLflow.60" route="route_RLflow.60" />
<route id="route_UD1flow.24" edges="inU1 notinU outD1" />
<vehicle type="noVar" depart="240" id="UD1flow.24" route="route_UD1flow.24" />
<route id="route_UD2flow.24" edges="inU2a outD2" />
<vehicle type="noVar" depart="240" id="UD2flow.24" route="route_UD2flow.24" />
<route id="route_RLflow.61" edges="inR notinR outL" />
<vehicle type="noVar" depart="244" id="RLflow.61" route="route_RLflow.61" />
<route id="route_LUflow.3" edges="inL notoutR -E3 outR2" />
<vehicle type="noVar" depart="244" id="LUflow.3" route="route_LUflow.3" />
<route id="route_RLflow.62" edges="inR notinR outL" />
<vehicle type="noVar" depart="248" id="RLflow.62" route="route_RLflow.62" />
<route id="route_UD1flow.25" edges="inU1 notinU outD1" />
<vehicle type="noVar" depart="250" id="UD1flow.25" route="route_UD1flow.25" />
<route id="route_UD2flow.25" edges="inU2a outD2" />
<vehicle type="noVar" depart="250" id="UD2flow.25" route="route_UD2flow.25" />
<route id="route_RLflow.63" edges="inR notinR outL" />
<vehicle type="noVar" depart="252" id="RLflow.63" route="route_RLflow.63" />
<route id="route_RLflow.64" edges="inR notinR outL" />
<vehicle type="noVar" depart="256" id="RLflow.64" route="route_RLflow.64" />
<route id="route_RLflow.65" edges="inR notinR outL" />
<vehicle type="noVar" depart="260" id="RLflow.65" route="route_RLflow.65" />
<route id="route_UD1flow.26" edges="inU1 notinU outD1" />
<vehicle type="noVar" depart="260" id="UD1flow.26" route="route_UD1flow.26" />
<route id="route_UD2flow.26" edges="inU2a outD2" />
<vehicle type="noVar" depart="260" id="UD2flow.26" route="route_UD2flow.26" />
<route id="route_RLflow.66" edges="inR notinR outL" />
<vehicle type="noVar" depart="264" id="RLflow.66" route="route_RLflow.66" />
<route id="route_RLflow.67" edges="inR notinR outL" />
<vehicle type="noVar" depart="268" id="RLflow.67" route="route_RLflow.67" />
<route id="route_UD1flow.27" edges="inU1 notinU outD1" />
<vehicle type="noVar" depart="270" id="UD1flow.27" route="route_UD1flow.27" />
<route id="route_UD2flow.27" edges="inU2a outD2" />
<vehicle type="noVar" depart="270" id="UD2flow.27" route="route_UD2flow.27" />
<route id="route_RLflow.68" edges="inR notinR outL" />
<vehicle type="noVar" depart="272" id="RLflow.68" route="route_RLflow.68" />
<route id="route_RLflow.69" edges="inR notinR outL" />
<vehicle type="noVar" depart="276" id="RLflow.69" route="route_RLflow.69" />
<route id="route_RLflow.70" edges="inR notinR outL" />
<vehicle type="noVar" depart="280" id="RLflow.70" route="route_RLflow.70" />
<route id="route_UD1flow.28" edges="inU1 notinU outD1" />
<vehicle type="noVar" depart="280" id="UD1flow.28" route="route_UD1flow.28" />
<route id="route_UD2flow.28" edges="inU2a outD2" />
<vehicle type="noVar" depart="280" id="UD2flow.28" route="route_UD2flow.28" />
<route id="route_RLflow.71" edges="inR notinR outL" />
<vehicle type="noVar" depart="284" id="RLflow.71" route="route_RLflow.71" />
<route id="route_RLflow.72" edges="inR notinR outL" />
<vehicle type="noVar" depart="288" id="RLflow.72" route="route_RLflow.72" />
<route id="route_UD1flow.29" edges="inU1 notinU outD1" />
<vehicle type="noVar" depart="290" id="UD1flow.29" route="route_UD1flow.29" />
<route id="route_UD2flow.29" edges="inU2a outD2" />
<vehicle type="noVar" depart="290" id="UD2flow.29" route="route_UD2flow.29" />
<route id="route_RLflow.73" edges="inR notinR outL" />
<vehicle type="noVar" depart="292" id="RLflow.73" route="route_RLflow.73" />
<route id="route_RLflow.74" edges="inR notinR outL" />
<vehicle type="noVar" depart="296" id="RLflow.74" route="route_RLflow.74" />
<route id="route_RLflow.75" edges="inR notinR outL" />
<vehicle type="noVar" depart="300" id="RLflow.75" route="route_RLflow.75" />
<route id="route_UD1flow.30" edges="inU1 notinU outD1" />
<vehicle type="noVar" depart="300" id="UD1flow.30" route="route_UD1flow.30" />
<route id="route_UD2flow.30" edges="inU2a outD2" />
<vehicle type="noVar" depart="300" id="UD2flow.30" route="route_UD2flow.30" />
<route id="route_RLflow.76" edges="inR notinR outL" />
<vehicle type="noVar" depart="304" id="RLflow.76" route="route_RLflow.76" />
<route id="route_RLflow.77" edges="inR notinR outL" />
<vehicle type="noVar" depart="308" id="RLflow.77" route="route_RLflow.77" />
<route id="route_UD1flow.31" edges="inU1 notinU outD1" />
<vehicle type="noVar" depart="310" id="UD1flow.31" route="route_UD1flow.31" />
<route id="route_UD2flow.31" edges="inU2a outD2" />
<vehicle type="noVar" depart="310" id="UD2flow.31" route="route_UD2flow.31" />
<route id="route_RLflow.78" edges="inR notinR outL" />
<vehicle type="noVar" depart="312" id="RLflow.78" route="route_RLflow.78" />
<route id="route_RLflow.79" edges="inR notinR outL" />
<vehicle type="noVar" depart="316" id="RLflow.79" route="route_RLflow.79" />
<route id="route_RLflow.80" edges="inR notinR outL" />
<vehicle type="noVar" depart="320" id="RLflow.80" route="route_RLflow.80" />
<route id="route_UD1flow.32" edges="inU1 notinU outD1" />
<vehicle type="noVar" depart="320" id="UD1flow.32" route="route_UD1flow.32" />
<route id="route_UD2flow.32" edges="inU2a outD2" />
<vehicle type="noVar" depart="320" id="UD2flow.32" route="route_UD2flow.32" />
<route id="route_RLflow.81" edges="inR notinR outL" />
<vehicle type="noVar" depart="324" id="RLflow.81" route="route_RLflow.81" />
<route id="route_LUflow.4" edges="inL notoutU E4 E5 outR2" />
<vehicle type="noVar" depart="326" id="LUflow.4" route="route_LUflow.4" />
<route id="route_RLflow.82" edges="inR notinR outL" />
<vehicle type="noVar" depart="328" id="RLflow.82" route="route_RLflow.82" />
<route id="route_UD1flow.33" edges="inU1 notinU outD1" />
<vehicle type="noVar" depart="330" id="UD1flow.33" route="route_UD1flow.33" />
<route id="route_UD2flow.33" edges="inU2a outD2" />
<vehicle type="noVar" depart="330" id="UD2flow.33" route="route_UD2flow.33" />
<route id="route_RLflow.83" edges="inR notinR outL" />
<vehicle type="noVar" depart="332" id="RLflow.83" route="route_RLflow.83" />
<route id="route_RLflow.84" edges="inR notinR outL" />
<vehicle type="noVar" depart="336" id="RLflow.84" route="route_RLflow.84" />
<route id="route_RLflow.85" edges="inR notinR outL" />
<vehicle type="noVar" depart="340" id="RLflow.85" route="route_RLflow.85" />
<route id="route_UD1flow.34" edges="inU1 notinU outD1" />
<vehicle type="noVar" depart="340" id="UD1flow.34" route="route_UD1flow.34" />
<route id="route_UD2flow.34" edges="inU2a outD2" />
<vehicle type="noVar" depart="340" id="UD2flow.34" route="route_UD2flow.34" />
<route id="route_RLflow.86" edges="inR notinR outL" />
<vehicle type="noVar" depart="344" id="RLflow.86" route="route_RLflow.86" />
<route id="route_RLflow.87" edges="inR notinR outL" />
<vehicle type="noVar" depart="348" id="RLflow.87" route="route_RLflow.87" />
<route id="route_UD1flow.35" edges="inU1 notinU outD1" />
<vehicle type="noVar" depart="350" id="UD1flow.35" route="route_UD1flow.35" />
<route id="route_UD2flow.35" edges="inU2a outD2" />
<vehicle type="noVar" depart="350" id="UD2flow.35" route="route_UD2flow.35" />
<route id="route_RLflow.88" edges="inR notinR outL" />
<vehicle type="noVar" depart="352" id="RLflow.88" route="route_RLflow.88" />
<route id="route_RLflow.89" edges="inR notinR outL" />
<vehicle type="noVar" depart="356" id="RLflow.89" route="route_RLflow.89" />
<route id="route_RLflow.90" edges="inR notinR outL" />
<vehicle type="noVar" depart="360" id="RLflow.90" route="route_RLflow.90" />
<route id="route_UD1flow.36" edges="inU1 notinU outD1" />
<vehicle type="noVar" depart="360" id="UD1flow.36" route="route_UD1flow.36" />
<route id="route_UD2flow.36" edges="inU2a outD2" />
<vehicle type="noVar" depart="360" id="UD2flow.36" route="route_UD2flow.36" />
<route id="route_RLflow.91" edges="inR notinR outL" />
<vehicle type="noVar" depart="364" id="RLflow.91" route="route_RLflow.91" />
<route id="route_RLflow.92" edges="inR notinR outL" />
<vehicle type="noVar" depart="368" id="RLflow.92" route="route_RLflow.92" />
<route id="route_UD1flow.37" edges="inU1 notinU outD1" />
<vehicle type="noVar" depart="370" id="UD1flow.37" route="route_UD1flow.37" />
<route id="route_UD2flow.37" edges="inU2a outD2" />
<vehicle type="noVar" depart="370" id="UD2flow.37" route="route_UD2flow.37" />
<route id="route_RLflow.93" edges="inR notinR outL" />
<vehicle type="noVar" depart="372" id="RLflow.93" route="route_RLflow.93" />
<route id="route_RLflow.94" edges="inR notinR outL" />
<vehicle type="noVar" depart="376" id="RLflow.94" route="route_RLflow.94" />
<route id="route_RLflow.95" edges="inR notinR outL" />
<vehicle type="noVar" depart="380" id="RLflow.95" route="route_RLflow.95" />
<route id="route_UD1flow.38" edges="inU1 notinU outD1" />
<vehicle type="noVar" depart="380" id="UD1flow.38" route="route_UD1flow.38" />
<route id="route_UD2flow.38" edges="inU2a outD2" />
<vehicle type="noVar" depart="380" id="UD2flow.38" route="route_UD2flow.38" />
<route id="route_RLflow.96" edges="inR notinR outL" />
<vehicle type="noVar" depart="384" id="RLflow.96" route="route_RLflow.96" />
<route id="route_RLflow.97" edges="inR notinR outL" />
<vehicle type="noVar" depart="388" id="RLflow.97" route="route_RLflow.97" />
<route id="route_UD1flow.39" edges="inU1 notinU outD1" />
<vehicle type="noVar" depart="390" id="UD1flow.39" route="route_UD1flow.39" />
<route id="route_UD2flow.39" edges="inU2a outD2" />
<vehicle type="noVar" depart="390" id="UD2flow.39" route="route_UD2flow.39" />
<route id="route_RLflow.98" edges="inR notinR outL" />
<vehicle type="noVar" depart="392" id="RLflow.98" route="route_RLflow.98" />
<route id="route_RLflow.99" edges="inR notinR outL" />
<vehicle type="noVar" depart="396" id="RLflow.99" route="route_RLflow.99" />
<route id="route_RLflow.100" edges="inR notinR outL" />
<vehicle type="noVar" depart="400" id="RLflow.100" route="route_RLflow.100" />
<route id="route_UD1flow.40" edges="inU1 notinU outD1" />
<vehicle type="noVar" depart="401" id="UD1flow.40" route="route_UD1flow.40" />
<route id="route_UD2flow.40" edges="inU2a outD2" />
<vehicle type="noVar" depart="401" id="UD2flow.40" route="route_UD2flow.40" />
<route id="route_RLflow.101" edges="inR notinR outL" />
<vehicle type="noVar" depart="404" id="RLflow.101" route="route_RLflow.101" />
<route id="route_LUflow.5" edges="inL notoutU E4 E5 outR2" />
<vehicle type="noVar" depart="408" id="LUflow.5" route="route_LUflow.5" />
<route id="route_RLflow.102" edges="inR notinR outL" />
<vehicle type="noVar" depart="408" id="RLflow.102" route="route_RLflow.102" />
<route id="route_UD1flow.41" edges="inU1 notinU outD1" />
<vehicle type="noVar" depart="411" id="UD1flow.41" route="route_UD1flow.41" />
<route id="route_UD2flow.41" edges="inU2a outD2" />
<vehicle type="noVar" depart="411" id="UD2flow.41" route="route_UD2flow.41" />
<route id="route_RLflow.103" edges="inR notinR outL" />
<vehicle type="noVar" depart="412" id="RLflow.103" route="route_RLflow.103" />
<route id="route_RLflow.104" edges="inR notinR outL" />
<vehicle type="noVar" depart="416" id="RLflow.104" route="route_RLflow.104" />
<route id="route_RLflow.105" edges="inR notinR outL" />
<vehicle type="noVar" depart="420" id="RLflow.105" route="route_RLflow.105" />
<route id="route_UD1flow.42" edges="inU1 notinU outD1" />
<vehicle type="noVar" depart="421" id="UD1flow.42" route="route_UD1flow.42" />
<route id="route_UD2flow.42" edges="inU2a outD2" />
<vehicle type="noVar" depart="421" id="UD2flow.42" route="route_UD2flow.42" />
<route id="route_RLflow.106" edges="inR notinR outL" />
<vehicle type="noVar" depart="424" id="RLflow.106" route="route_RLflow.106" />
<route id="route_RLflow.107" edges="inR notinR outL" />
<vehicle type="noVar" depart="428" id="RLflow.107" route="route_RLflow.107" />
<route id="route_UD1flow.43" edges="inU1 notinU outD1" />
<vehicle type="noVar" depart="431" id="UD1flow.43" route="route_UD1flow.43" />
<route id="route_UD2flow.43" edges="inU2a outD2" />
<vehicle type="noVar" depart="431" id="UD2flow.43" route="route_UD2flow.43" />
<route id="route_RLflow.108" edges="inR notinR outL" />
<vehicle type="noVar" depart="432" id="RLflow.108" route="route_RLflow.108" />
<route id="route_RLflow.109" edges="inR notinR outL" />
<vehicle type="noVar" depart="436" id="RLflow.109" route="route_RLflow.109" />
<route id="route_RLflow.110" edges="inR notinR outL" />
<vehicle type="noVar" depart="440" id="RLflow.110" route="route_RLflow.110" />
<route id="route_UD1flow.44" edges="inU1 notinU outD1" />
<vehicle type="noVar" depart="441" id="UD1flow.44" route="route_UD1flow.44" />
<route id="route_UD2flow.44" edges="inU2a outD2" />
<vehicle type="noVar" depart="441" id="UD2flow.44" route="route_UD2flow.44" />
<route id="route_RLflow.111" edges="inR notinR outL" />
<vehicle type="noVar" depart="444" id="RLflow.111" route="route_RLflow.111" />
<route id="route_RLflow.112" edges="inR notinR outL" />
<vehicle type="noVar" depart="448" id="RLflow.112" route="route_RLflow.112" />
<route id="route_UD1flow.45" edges="inU1 notinU outD1" />
<vehicle type="noVar" depart="451" id="UD1flow.45" route="route_UD1flow.45" />
<route id="route_UD2flow.45" edges="inU2a outD2" />
<vehicle type="noVar" depart="451" id="UD2flow.45" route="route_UD2flow.45" />
<route id="route_RLflow.113" edges="inR notinR outL" />
<vehicle type="noVar" depart="452" id="RLflow.113" route="route_RLflow.113" />
<route id="route_RLflow.114" edges="inR notinR outL" />
<vehicle type="noVar" depart="456" id="RLflow.114" route="route_RLflow.114" />
<route id="route_RLflow.115" edges="inR notinR outL" />
<vehicle type="noVar" depart="460" id="RLflow.115" route="route_RLflow.115" />
<route id="route_UD1flow.46" edges="inU1 notinU outD1" />
<vehicle type="noVar" depart="461" id="UD1flow.46" route="route_UD1flow.46" />
<route id="route_UD2flow.46" edges="inU2a outD2" />
<vehicle type="noVar" depart="461" id="UD2flow.46" route="route_UD2flow.46" />
<route id="route_RLflow.116" edges="inR notinR outL" />
<vehicle type="noVar" depart="464" id="RLflow.116" route="route_RLflow.116" />
<route id="route_RLflow.117" edges="inR notinR outL" />
<vehicle type="noVar" depart="468" id="RLflow.117" route="route_RLflow.117" />
<route id="route_UD1flow.47" edges="inU1 notinU outD1" />
<vehicle type="noVar" depart="471" id="UD1flow.47" route="route_UD1flow.47" />
<route id="route_UD2flow.47" edges="inU2a outD2" />
<vehicle type="noVar" depart="471" id="UD2flow.47" route="route_UD2flow.47" />
<route id="route_RLflow.118" edges="inR notinR outL" />
<vehicle type="noVar" depart="472" id="RLflow.118" route="route_RLflow.118" />
<route id="route_RLflow.119" edges="inR notinR outL" />
<vehicle type="noVar" depart="476" id="RLflow.119" route="route_RLflow.119" />
<route id="route_RLflow.120" edges="inR notinR outL" />
<vehicle type="noVar" depart="480" id="RLflow.120" route="route_RLflow.120" />
<route id="route_UD1flow.48" edges="inU1 notinU outD1" />
<vehicle type="noVar" depart="481" id="UD1flow.48" route="route_UD1flow.48" />
<route id="route_UD2flow.48" edges="inU2a outD2" />