<?xml version="1.0" encoding="UTF-8"?>
<routes xmlns:xsi="http://www.w3.org/2001/XMLSchema-instance" xsi:noNamespaceSchemaLocation="http://sumo.dlr.de/xsd/routes_file.xsd">

<vType id="noVar" speedFactor="1.0" speedDev="0.0"/>
<route id="route_LRflow.0" edges="inL outR" />
<vehicle type="noVar" depart="0" id="LRflow.0" route="route_LRflow.0" />
<route id="route_LRflow.1" edges="inL outR" />
<vehicle type="noVar" depart="3" id="LRflow.1" route="route_LRflow.1" />
<route id="route_LRflow.2" edges="inL outR" />
<vehicle type="noVar" depart="7" id="LRflow.2" route="route_LRflow.2" />
<route id="route_LRflow.3" edges="inL outR" />
<vehicle type="noVar" depart="10" id="LRflow.3" route="route_LRflow.3" />
<route id="route_LRflow.4" edges="inL outR" />
<vehicle type="noVar" depart="14" id="LRflow.4" route="route_LRflow.4" />
<route id="route_LRflow.5" edges="inL outR" />
<vehicle type="noVar" depart="18" id="LRflow.5" route="route_LRflow.5" />
<route id="route_LRflow.6" edges="inL outR" />
<vehicle type="noVar" depart="21" id="LRflow.6" route="route_LRflow.6" />
<route id="route_LRflow.7" edges="inL outR" />
<vehicle type="noVar" depart="25" id="LRflow.7" route="route_LRflow.7" />
<route id="route_LRflow.8" edges="inL outR" />
<vehicle type="noVar" depart="28" id="LRflow.8" route="route_LRflow.8" />
<route id="route_LRflow.9" edges="inL outR" />
<vehicle type="noVar" depart="32" id="LRflow.9" route="route_LRflow.9" />
<route id="route_LRflow.10" edges="inL outR" />
<vehicle type="noVar" depart="36" id="LRflow.10" route="route_LRflow.10" />
<route id="route_LRflow.11" edges="inL outR" />
<vehicle type="noVar" depart="39" id="LRflow.11" route="route_LRflow.11" />
<route id="route_LRflow.12" edges="inL outR" />
<vehicle type="noVar" depart="43" id="LRflow.12" route="route_LRflow.12" />
<route id="route_LRflow.13" edges="inL outR" />
<vehicle type="noVar" depart="46" id="LRflow.13" route="route_LRflow.13" />
<route id="route_LRflow.14" edges="inL outR" />
<vehicle type="noVar" depart="50" id="LRflow.14" route="route_LRflow.14" />
<route id="route_LRflow.15" edges="inL outR" />
<vehicle type="noVar" depart="54" id="LRflow.15" route="route_LRflow.15" />
<route id="route_LRflow.16" edges="inL outR" />
<vehicle type="noVar" depart="57" id="LRflow.16" route="route_LRflow.16" />
<route id="route_LRflow.17" edges="inL outR" />
<vehicle type="noVar" depart="61" id="LRflow.17" route="route_LRflow.17" />
<route id="route_LRflow.18" edges="inL outR" />
<vehicle type="noVar" depart="64" id="LRflow.18" route="route_LRflow.18" />
<route id="route_LRflow.19" edges="inL outR" />
<vehicle type="noVar" depart="68" id="LRflow.19" route="route_LRflow.19" />
<route id="route_LRflow.20" edges="inL outR" />
<vehicle type="noVar" depart="72" id="LRflow.20" route="route_LRflow.20" />
<route id="route_LRflow.21" edges="inL outR" />
<vehicle type="noVar" depart="75" id="LRflow.21" route="route_LRflow.21" />
<route id="route_LRflow.22" edges="inL outR" />
<vehicle type="noVar" depart="79" id="LRflow.22" route="route_LRflow.22" />
<route id="route_LRflow.23" edges="inL outR" />
<vehicle type="noVar" depart="82" id="LRflow.23" route="route_LRflow.23" />
<route id="route_LRflow.24" edges="inL outR" />
<vehicle type="noVar" depart="86" id="LRflow.24" route="route_LRflow.24" />
<route id="route_LRflow.25" edges="inL outR" />
<vehicle type="noVar" depart="90" id="LRflow.25" route="route_LRflow.25" />
<route id="route_LRflow.26" edges="inL outR" />
<vehicle type="noVar" depart="93" id="LRflow.26" route="route_LRflow.26" />
<route id="route_LRflow.27" edges="inL outR" />
<vehicle type="noVar" depart="97" id="LRflow.27" route="route_LRflow.27" />
<route id="route_LRflow.28" edges="inL outR" />
<vehicle type="noVar" depart="100" id="LRflow.28" route="route_LRflow.28" />
<route id="route_LRflow.29" edges="inL outR" />
<vehicle type="noVar" depart="104" id="LRflow.29" route="route_LRflow.29" />
<route id="route_LRflow.30" edges="inL outR" />
<vehicle type="noVar" depart="108" id="LRflow.30" route="route_LRflow.30" />
<route id="route_LRflow.31" edges="inL outR" />
<vehicle type="noVar" depart="111" id="LRflow.31" route="route_LRflow.31" />
<route id="route_LRflow.32" edges="inL outR" />
<vehicle type="noVar" depart="115" id="LRflow.32" route="route_LRflow.32" />
<route id="route_LRflow.33" edges="inL outR" />
<vehicle type="noVar" depart="118" id="LRflow.33" route="route_LRflow.33" />
<route id="route_LRflow.34" edges="inL outR" />
<vehicle type="noVar" depart="122" id="LRflow.34" route="route_LRflow.34" />
<route id="route_LRflow.35" edges="inL outR" />
<vehicle type="noVar" depart="126" id="LRflow.35" route="route_LRflow.35" />
<route id="route_LRflow.36" edges="inL outR" />
<vehicle type="noVar" depart="129" id="LRflow.36" route="route_LRflow.36" />
<route id="route_LRflow.37" edges="inL outR" />
<vehicle type="noVar" depart="133" id="LRflow.37" route="route_LRflow.37" />
<route id="route_LRflow.38" edges="inL outR" />
<vehicle type="noVar" depart="136" id="LRflow.38" route="route_LRflow.38" />
<route id="route_LRflow.39" edges="inL outR" />
<vehicle type="noVar" depart="140" id="LRflow.39" route="route_LRflow.39" />
<route id="route_LRflow.40" edges="inL outR" />
<vehicle type="noVar" depart="144" id="LRflow.40" route="route_LRflow.40" />
<route id="route_LRflow.41" edges="inL outR" />
<vehicle type="noVar" depart="147" id="LRflow.41" route="route_LRflow.41" />
<route id="route_LRflow.42" edges="inL outR" />
<vehicle type="noVar" depart="151" id="LRflow.42" route="route_LRflow.42" />
<route id="route_LRflow.43" edges="inL outR" />
<vehicle type="noVar" depart="154" id="LRflow.43" route="route_LRflow.43" />
<route id="route_LRflow.44" edges="inL outR" />
<vehicle type="noVar" depart="158" id="LRflow.44" route="route_LRflow.44" />
<route id="route_LRflow.45" edges="inL outR" />
<vehicle type="noVar" depart="162" id="LRflow.45" route="route_LRflow.45" />
<route id="route_LRflow.46" edges="inL outR" />
<vehicle type="noVar" depart="165" id="LRflow.46" route="route_LRflow.46" />
<route id="route_LRflow.47" edges="inL outR" />
<vehicle type="noVar" depart="169" id="LRflow.47" route="route_LRflow.47" />
<route id="route_LRflow.48" edges="inL outR" />
<vehicle type="noVar" depart="172" id="LRflow.48" route="route_LRflow.48" />
<route id="route_LRflow.49" edges="inL outR" />
<vehicle type="noVar" depart="176" id="LRflow.49" route="route_LRflow.49" />
<route id="route_LRflow.50" edges="inL outR" />
<vehicle type="noVar" depart="180" id="LRflow.50" route="route_LRflow.50" />
<route id="route_LRflow.51" edges="inL outR" />
<vehicle type="noVar" depart="183" id="LRflow.51" route="route_LRflow.51" />
<route id="route_LRflow.52" edges="inL outR" />
<vehicle type="noVar" depart="187" id="LRflow.52" route="route_LRflow.52" />
<route id="route_LRflow.53" edges="inL outR" />
<vehicle type="noVar" depart="190" id="LRflow.53" route="route_LRflow.53" />
<route id="route_LRflow.54" edges="inL outR" />
<vehicle type="noVar" depart="194" id="LRflow.54" route="route_LRflow.54" />
<route id="route_LRflow.55" edges="inL outR" />
<vehicle type="noVar" depart="198" id="LRflow.55" route="route_LRflow.55" />
<route id="route_LRflow.56" edges="inL outR" />
<vehicle type="noVar" depart="201" id="LRflow.56" route="route_LRflow.56" />
<route id="route_LRflow.57" edges="inL outR" />
<vehicle type="noVar" depart="205" id="LRflow.57" route="route_LRflow.57" />
<route id="route_LRflow.58" edges="inL outR" />
<vehicle type="noVar" depart="209" id="LRflow.58" route="route_LRflow.58" />
<route id="route_LRflow.59" edges="inL outR" />
<vehicle type="noVar" depart="212" id="LRflow.59" route="route_LRflow.59" />
<route id="route_LRflow.60" edges="inL outR" />
<vehicle type="noVar" depart="216" id="LRflow.60" route="route_LRflow.60" />
<route id="route_LRflow.61" edges="inL outR" />
<vehicle type="noVar" depart="219" id="LRflow.61" route="route_LRflow.61" />
<route id="route_LRflow.62" edges="inL outR" />
<vehicle type="noVar" depart="223" id="LRflow.62" route="route_LRflow.62" />
<route id="route_LRflow.63" edges="inL outR" />
<vehicle type="noVar" depart="227" id="LRflow.63" route="route_LRflow.63" />
<route id="route_LRflow.64" edges="inL outR" />
<vehicle type="noVar" depart="230" id="LRflow.64" route="route_LRflow.64" />
<route id="route_LRflow.65" edges="inL outR" />
<vehicle type="noVar" depart="234" id="LRflow.65" route="route_LRflow.65" />
<route id="route_LRflow.66" edges="inL outR" />
<vehicle type="noVar" depart="237" id="LRflow.66" route="route_LRflow.66" />
<route id="route_LRflow.67" edges="inL outR" />
<vehicle type="noVar" depart="241" id="LRflow.67" route="route_LRflow.67" />
<route id="route_LRflow.68" edges="inL outR" />
<vehicle type="noVar" depart="245" id="LRflow.68" route="route_LRflow.68" />
<route id="route_LRflow.69" edges="inL outR" />
<vehicle type="noVar" depart="248" id="LRflow.69" route="route_LRflow.69" />
<route id="route_LRflow.70" edges="inL outR" />
<vehicle type="noVar" depart="252" id="LRflow.70" route="route_LRflow.70" />
<route id="route_LRflow.71" edges="inL outR" />
<vehicle type="noVar" depart="255" id="LRflow.71" route="route_LRflow.71" />
<route id="route_LRflow.72" edges="inL outR" />
<vehicle type="noVar" depart="259" id="LRflow.72" route="route_LRflow.72" />
<route id="route_LRflow.73" edges="inL outR" />
<vehicle type="noVar" depart="263" id="LRflow.73" route="route_LRflow.73" />
<route id="route_LRflow.74" edges="inL outR" />
<vehicle type="noVar" depart="266" id="LRflow.74" route="route_LRflow.74" />
<route id="route_LRflow.75" edges="inL outR" />
<vehicle type="noVar" depart="270" id="LRflow.75" route="route_LRflow.75" />
<route id="route_LRflow.76" edges="inL outR" />
<vehicle type="noVar" depart="273" id="LRflow.76" route="route_LRflow.76" />
<route id="route_LRflow.77" edges="inL outR" />
<vehicle type="noVar" depart="277" id="LRflow.77" route="route_LRflow.77" />
<route id="route_LRflow.78" edges="inL outR" />
<vehicle type="noVar" depart="281" id="LRflow.78" route="route_LRflow.78" />
<route id="route_LRflow.79" edges="inL outR" />
<vehicle type="noVar" depart="284" id="LRflow.79" route="route_LRflow.79" />
<route id="route_LRflow.80" edges="inL outR" />
<vehicle type="noVar" depart="288" id="LRflow.80" route="route_LRflow.80" />
<route id="route_LRflow.81" edges="inL outR" />
<vehicle type="noVar" depart="291" id="LRflow.81" route="route_LRflow.81" />
<route id="route_LRflow.82" edges="inL outR" />
<vehicle type="noVar" depart="295" id="LRflow.82" route="route_LRflow.82" />
<route id="route_LRflow.83" edges="inL outR" />
<vehicle type="noVar" depart="299" id="LRflow.83" route="route_LRflow.83" />
<route id="route_LRflow.84" edges="inL outR" />
<vehicle type="noVar" depart="302" id="LRflow.84" route="route_LRflow.84" />
<route id="route_LRflow.85" edges="inL outR" />
<vehicle type="noVar" depart="306" id="LRflow.85" route="route_LRflow.85" />
<route id="route_LRflow.86" edges="inL outR" />
<vehicle type="noVar" depart="309" id="LRflow.86" route="route_LRflow.86" />
<route id="route_LRflow.87" edges="inL outR" />
<vehicle type="noVar" depart="313" id="LRflow.87" route="route_LRflow.87" />
<route id="route_LRflow.88" edges="inL outR" />
<vehicle type="noVar" depart="317" id="LRflow.88" route="route_LRflow.88" />
<route id="route_LRflow.89" edges="inL outR" />
<vehicle type="noVar" depart="320" id="LRflow.89" route="route_LRflow.89" />
<route id="route_LRflow.90" edges="inL outR" />
<vehicle type="noVar" depart="324" id="LRflow.90" route="route_LRflow.90" />
<route id="route_LRflow.91" edges="inL outR" />
<vehicle type="noVar" depart="327" id="LRflow.91" route="route_LRflow.91" />
<route id="route_LRflow.92" edges="inL outR" />
<vehicle type="noVar" depart="331" id="LRflow.92" route="route_LRflow.92" />
<route id="route_LRflow.93" edges="inL outR" />
<vehicle type="noVar" depart="335" id="LRflow.93" route="route_LRflow.93" />
<route id="route_LRflow.94" edges="inL outR" />
<vehicle type="noVar" depart="338" id="LRflow.94" route="route_LRflow.94" />
<route id="route_LRflow.95" edges="inL outR" />
<vehicle type="noVar" depart="342" id="LRflow.95" route="route_LRflow.95" />
<route id="route_LRflow.96" edges="inL outR" />
<vehicle type="noVar" depart="345" id="LRflow.96" route="route_LRflow.96" />
<route id="route_LRflow.97" edges="inL outR" />
<vehicle type="noVar" depart="349" id="LRflow.97" route="route_LRflow.97" />
<route id="route_LRflow.98" edges="inL outR" />
<vehicle type="noVar" depart="353" id="LRflow.98" route="route_LRflow.98" />
<route id="route_LRflow.99" edges="inL outR" />
<vehicle type="noVar" depart="356" id="LRflow.99" route="route_LRflow.99" />
<route id="route_LRflow.100" edges="inL outR" />
<vehicle type="noVar" depart="360" id="LRflow.100" route="route_LRflow.100" />
<route id="route_LRflow.101" edges="inL outR" />
<vehicle type="noVar" depart="363" id="LRflow.101" route="route_LRflow.101" />
<route id="route_LRflow.102" edges="inL outR" />
<vehicle type="noVar" depart="367" id="LRflow.102" route="route_LRflow.102" />
<route id="route_LRflow.103" edges="inL outR" />
<vehicle type="noVar" depart="371" id="LRflow.103" route="route_LRflow.103" />
<route id="route_LRflow.104" edges="inL outR" />
<vehicle type="noVar" depart="374" id="LRflow.104" route="route_LRflow.104" />
<route id="route_LRflow.105" edges="inL outR" />
<vehicle type="noVar" depart="378" id="LRflow.105" route="route_LRflow.105" />
<route id="route_LRflow.106" edges="inL outR" />
<vehicle type="noVar" depart="381" id="LRflow.106" route="route_LRflow.106" />
<route id="route_LRflow.107" edges="inL outR" />
<vehicle type="noVar" depart="385" id="LRflow.107" route="route_LRflow.107" />
<route id="route_LRflow.108" edges="inL outR" />
<vehicle type="noVar" depart="389" id="LRflow.108" route="route_LRflow.108" />
<route id="route_LRflow.109" edges="inL outR" />
<vehicle type="noVar" depart="392" id="LRflow.109" route="route_LRflow.109" />
<route id="route_LRflow.110" edges="inL outR" />
<vehicle type="noVar" depart="396" id="LRflow.110" route="route_LRflow.110" />
<route id="route_LRflow.111" edges="inL outR" />
<vehicle type="noVar" depart="400" id="LRflow.111" route="route_LRflow.111" />
<route id="route_LRflow.112" edges="inL outR" />
<vehicle type="noVar" depart="403" id="LRflow.112" route="route_LRflow.112" />
<route id="route_LRflow.113" edges="inL outR" />
<vehicle type="noVar" depart="407" id="LRflow.113" route="route_LRflow.113" />
<route id="route_LRflow.114" edges="inL outR" />
<vehicle type="noVar" depart="410" id="LRflow.114" route="route_LRflow.114" />
<route id="route_LRflow.115" edges="inL outR" />
<vehicle type="noVar" depart="414" id="LRflow.115" route="route_LRflow.115" />
<route id="route_LRflow.116" edges="inL outR" />
<vehicle type="noVar" depart="418" id="LRflow.116" route="route_LRflow.116" />
<route id="route_LRflow.117" edges="inL outR" />
<vehicle type="noVar" depart="421" id="LRflow.117" route="route_LRflow.117" />
<route id="route_LRflow.118" edges="inL outR" />
<vehicle type="noVar" depart="425" id="LRflow.118" route="route_LRflow.118" />
<route id="route_LRflow.119" edges="inL outR" />
<vehicle type="noVar" depart="428" id="LRflow.119" route="route_LRflow.119" />
<route id="route_LRflow.120" edges="inL outR" />
<vehicle type="noVar" depart="432" id="LRflow.120" route="route_LRflow.120" />
<route id="route_LRflow.121" edges="inL outR" />
<vehicle type="noVar" depart="436" id="LRflow.121" route="route_LRflow.121" />
<route id="route_LRflow.122" edges="inL outR" />
<vehicle type="noVar" depart="439" id="LRflow.122" route="route_LRflow.122" />
<route id="route_LRflow.123" edges="inL outR" />
<vehicle type="noVar" depart="443" id="LRflow.123" route="route_LRflow.123" />
<route id="route_LRflow.124" edges="inL outR" />
<vehicle type="noVar" depart="446" id="LRflow.124" route="route_LRflow.124" />
<route id="route_LRflow.125" edges="inL outR" />
<vehicle type="noVar" depart="450" id="LRflow.125" route="route_LRflow.125" />
<route id="route_LRflow.126" edges="inL outR" />
<vehicle type="noVar" depart="454" id="LRflow.126" route="route_LRflow.126" />
<route id="route_LRflow.127" edges="inL outR" />
<vehicle type="noVar" depart="457" id="LRflow.127" route="route_LRflow.127" />
<route id="route_LRflow.128" edges="inL outR" />
<vehicle type="noVar" depart="461" id="LRflow.128" route="route_LRflow.128" />
<route id="route_LRflow.129" edges="inL outR" />
<vehicle type="noVar" depart="464" id="LRflow.129" route="route_LRflow.129" />
<route id="route_LRflow.130" edges="inL outR" />
<vehicle type="noVar" depart="468" id="LRflow.130" route="route_LRflow.130" />
<route id="route_LRflow.131" edges="inL outR" />
<vehicle type="noVar" depart="472" id="LRflow.131" route="route_LRflow.131" />
<route id="route_LRflow.132" edges="inL outR" />
<vehicle type="noVar" depart="475" id="LRflow.132" route="route_LRflow.132" />
<route id="route_LRflow.133" edges="inL outR" />
<vehicle type="noVar" depart="479" id="LRflow.133" route="route_LRflow.133" />
<route id="route_LRflow.134" edges="inL outR" />
<vehicle type="noVar" depart="482" id="LRflow.134" route="route_LRflow.134" />
<route id="route_LRflow.135" edges="inL outR" />
<vehicle type="noVar" depart="486" id="LRflow.135" route="route_LRflow.135" />
<route id="route_LRflow.136" edges="inL outR" />
<vehicle type="noVar" depart="490" id="LRflow.136" route="route_LRflow.136" />
<route id="route_LRflow.137" edges="inL outR" />
<vehicle type="noVar" depart="493" id="LRflow.137" route="route_LRflow.137" />
<route id="route_LRflow.138" edges="inL outR" />
<vehicle type="noVar" depart="497" id="LRflow.138" route="route_LRflow.138" />
<route id="route_LRflow.139" edges="inL outR" />
<vehicle type="noVar" depart="500" id="LRflow.139" route="route_LRflow.139" />
<route id="route_LRflow.140" edges="inL outR" />
<vehicle type="noVar" depart="504" id="LRflow.140" route="route_LRflow.140" />
<route id="route_LRflow.141" edges="inL outR" />
<vehicle type="noVar" depart="508" id="LRflow.141" route="route_LRflow.141" />
<route id="route_LRflow.142" edges="inL outR" />
<vehicle type="noVar" depart="511" id="LRflow.142" route="route_LRflow.142" />
<route id="route_LRflow.143" edges="inL outR" />
<vehicle type="noVar" depart="515" id="LRflow.143" route="route_LRflow.143" />
<route id="route_LRflow.144" edges="inL outR" />
<vehicle type="noVar" depart="518" id="LRflow.144" route="route_LRflow.144" />
<route id="route_LRflow.145" edges="inL outR" />
<vehicle type="noVar" depart="522" id="LRflow.145" route="route_LRflow.145" />
<route id="route_LRflow.146" edges="inL outR" />
<vehicle type="noVar" depart="526" id="LRflow.146" route="route_LRflow.146" />
<route id="route_LRflow.147" edges="inL outR" />
<vehicle type="noVar" depart="529" id="LRflow.147" route="route_LRflow.147" />
<route id="route_LRflow.148" edges="inL outR" />
<vehicle type="noVar" depart="533" id="LRflow.148" route="route_LRflow.148" />
<route id="route_LRflow.149" edges="inL outR" />
<vehicle type="noVar" depart="536" id="LRflow.149" route="route_LRflow.149" />
<route id="route_LRflow.150" edges="inL outR" />
<vehicle type="noVar" depart="540" id="LRflow.150" route="route_LRflow.150" />
<route id="route_LRflow.151" edges="inL outR" />
<vehicle type="noVar" depart="544" id="LRflow.151" route="route_LRflow.151" />
<route id="route_LRflow.152" edges="inL outR" />
<vehicle type="noVar" depart="547" id="LRflow.152" route="route_LRflow.152" />
<route id="route_LRflow.153" edges="inL outR" />
<vehicle type="noVar" depart="551" id="LRflow.153" route="route_LRflow.153" />
<route id="route_LRflow.154" edges="inL outR" />
<vehicle type="noVar" depart="554" id="LRflow.154" route="route_LRflow.154" />
<route id="route_LRflow.155" edges="inL outR" />
<vehicle type="noVar" depart="558" id="LRflow.155" route="route_LRflow.155" />
<route id="route_LRflow.156" edges="inL outR" />
<vehicle type="noVar" depart="562" id="LRflow.156" route="route_LRflow.156" />
<route id="route_LRflow.157" edges="inL outR" />
<vehicle type="noVar" depart="565" id="LRflow.157" route="route_LRflow.157" />
<route id="route_LRflow.158" edges="inL outR" />
<vehicle type="noVar" depart="569" id="LRflow.158" route="route_LRflow.158" />
<route id="route_LRflow.159" edges="inL outR" />
<vehicle type="noVar" depart="572" id="LRflow.159" route="route_LRflow.159" />
<route id="route_LRflow.160" edges="inL outR" />
<vehicle type="noVar" depart="576" id="LRflow.160" route="route_LRflow.160" />
<route id="route_LRflow.161" edges="inL outR" />
<vehicle type="noVar" depart="580" id="LRflow.161" route="route_LRflow.161" />
<route id="route_LRflow.162" edges="inL outR" />
<vehicle type="noVar" depart="583" id="LRflow.162" route="route_LRflow.162" />
<route id="route_LRflow.163" edges="inL outR" />
<vehicle type="noVar" depart="587" id="LRflow.163" route="route_LRflow.163" />
<route id="route_LRflow.164" edges="inL outR" />
<vehicle type="noVar" depart="590" id="LRflow.164" route="route_LRflow.164" />
<route id="route_LRflow.165" edges="inL outR" />
<vehicle type="noVar" depart="594" id="LRflow.165" route="route_LRflow.165" />
<route id="route_LRflow.166" edges="inL outR" />
<vehicle type="noVar" depart="598" id="LRflow.166" route="route_LRflow.166" />
<route id="route_LRflow.167" edges="inL outR" />
<vehicle type="noVar" depart="601" id="LRflow.167" route="route_LRflow.167" />
<route id="route_LRflow.168" edges="inL outR" />
<vehicle type="noVar" depart="605" id="LRflow.168" route="route_LRflow.168" />
<route id="route_LRflow.169" edges="inL outR" />
<vehicle type="noVar" depart="609" id="LRflow.169" route="route_LRflow.169" />
<route id="route_LRflow.170" edges="inL outR" />
<vehicle type="noVar" depart="612" id="LRflow.170" route="route_LRflow.170" />
<route id="route_LRflow.171" edges="inL outR" />
<vehicle type="noVar" depart="616" id="LRflow.171" route="route_LRflow.171" />
<route id="route_LRflow.172" edges="inL outR" />
<vehicle type="noVar" depart="619" id="LRflow.172" route="route_LRflow.172" />
<route id="route_LRflow.173" edges="inL outR" />
<vehicle type="noVar" depart="623" id="LRflow.173" route="route_LRflow.173" />
<route id="route_LRflow.174" edges="inL outR" />
<vehicle type="noVar" depart="627" id="LRflow.174" route="route_LRflow.174" />
<route id="route_LRflow.175" edges="inL outR" />
<vehicle type="noVar" depart="630" id="LRflow.175" route="route_LRflow.175" />
<route id="route_LRflow.176" edges="inL outR" />
<vehicle type="noVar" depart="634" id="LRflow.176" route="route_LRflow.176" />
<route id="route_LRflow.177" edges="inL outR" />
<vehicle type="noVar" depart="637" id="LRflow.177" route="route_LRflow.177" />
<route id="route_LRflow.178" edges="inL outR" />
<vehicle type="noVar" depart="641" id="LRflow.178" route="route_LRflow.178" />
<route id="route_LRflow.179" edges="inL outR" />
<vehicle type="noVar" depart="645" id="LRflow.179" route="route_LRflow.179" />
<route id="route_LRflow.180" edges="inL outR" />
<vehicle type="noVar" depart="648" id="LRflow.180" route="route_LRflow.180" />
<route id="route_LRflow.181" edges="inL outR" />
<vehicle type="noVar" depart="652" id="LRflow.181" route="route_LRflow.181" />
<route id="route_LRflow.182" edges="inL outR" />
<vehicle type="noVar" depart="655" id="LRflow.182" route="route_LRflow.182" />
<route id="route_LRflow.183" edges="inL outR" />
<vehicle type="noVar" depart="659" id="LRflow.183" route="route_LRflow.183" />
<route id="route_LRflow.184" edges="inL outR" />
<vehicle type="noVar" depart="663" id="LRflow.184" route="route_LRflow.184" />
<route id="route_LRflow.185" edges="inL outR" />
<vehicle type="noVar" depart="666" id="LRflow.185" route="route_LRflow.185" />
<route id="route_LRflow.186" edges="inL outR" />
<vehicle type="noVar" depart="670" id="LRflow.186" route="route_LRflow.186" />
<route id="route_LRflow.187" edges="inL outR" />
<vehicle type="noVar" depart="673" id="LRflow.187" route="route_LRflow.187" />
<route id="route_LRflow.188" edges="inL outR" />
<vehicle type="noVar" depart="677" id="LRflow.188" route="route_LRflow.188" />
<route id="route_LRflow.189" edges="inL outR" />
<vehicle type="noVar" depart="681" id="LRflow.189" route="route_LRflow.189" />
<route id="route_LRflow.190" edges="inL outR" />
<vehicle type="noVar" depart="684" id="LRflow.190" route="route_LRflow.190" />
<route id="route_LRflow.191" edges="inL outR" />
<vehicle type="noVar" depart="688" id="LRflow.191" route="route_LRflow.191" />
<route id="route_LRflow.192" edges="inL outR" />
<vehicle type="noVar" depart="691" id="LRflow.192" route="route_LRflow.192" />
<route id="route_LRflow.193" edges="inL outR" />
<vehicle type="noVar" depart="695" id="LRflow.193" route="route_LRflow.193" />
<route id="route_LRflow.194" edges="inL outR" />
<vehicle type="noVar" depart="699" id="LRflow.194" route="route_LRflow.194" />
<route id="route_LRflow.195" edges="inL outR" />
<vehicle type="noVar" depart="702" id="LRflow.195" route="route_LRflow.195" />
<route id="route_LRflow.196" edges="inL outR" />
<vehicle type="noVar" depart="706" id="LRflow.196" route="route_LRflow.196" />
<route id="route_LRflow.197" edges="inL outR" />
<vehicle type="noVar" depart="709" id="LRflow.197" route="route_LRflow.197" />
<route id="route_LRflow.198" edges="inL outR" />
<vehicle type="noVar" depart="713" id="LRflow.198" route="route_LRflow.198" />
<route id="route_LRflow.199" edges="inL outR" />
<vehicle type="noVar" depart="717" id="LRflow.199" route="route_LRflow.199" />
<route id="route_LRflow.200" edges="inL outR" />
<vehicle type="noVar" depart="720" id="LRflow.200" route="route_LRflow.200" />
<route id="route_LRflow.201" edges="inL outR" />
<vehicle type="noVar" depart="724" id="LRflow.201" route="route_LRflow.201" />
<route id="route_LRflow.202" edges="inL outR" />
<vehicle type="noVar" depart="727" id="LRflow.202" route="route_LRflow.202" />
<route id="route_LRflow.203" edges="inL outR" />
<vehicle type="noVar" depart="731" id="LRflow.203" route="route_LRflow.203" />
<route id="route_LRflow.204" edges="inL outR" />
<vehicle type="noVar" depart="735" id="LRflow.204" route="route_LRflow.204" />
<route id="route_LRflow.205" edges="inL outR" />
<vehicle type="noVar" depart="738" id="LRflow.205" route="route_LRflow.205" />
<route id="route_LRflow.206" edges="inL outR" />
<vehicle type="noVar" depart="742" id="LRflow.206" route="route_LRflow.206" />
<route id="route_LRflow.207" edges="inL outR" />
<vehicle type="noVar" depart="745" id="LRflow.207" route="route_LRflow.207" />
<route id="route_LRflow.208" edges="inL outR" />
<vehicle type="noVar" depart="749" id="LRflow.208" route="route_LRflow.208" />
<route id="route_LRflow.209" edges="inL outR" />
<vehicle type="noVar" depart="753" id="LRflow.209" route="route_LRflow.209" />
<route id="route_LRflow.210" edges="inL outR" />
<vehicle type="noVar" depart="756" id="LRflow.210" route="route_LRflow.210" />
<route id="route_LRflow.211" edges="inL outR" />
<vehicle type="noVar" depart="760" id="LRflow.211" route="route_LRflow.211" />
<route id="route_LRflow.212" edges="inL outR" />
<vehicle type="noVar" depart="763" id="LRflow.212" route="route_LRflow.212" />
<route id="route_LRflow.213" edges="inL outR" />
<vehicle type="noVar" depart="767" id="LRflow.213" route="route_LRflow.213" />
<route id="route_LRflow.214" edges="inL outR" />
<vehicle type="noVar" depart="771" id="LRflow.214" route="route_LRflow.214" />
<route id="route_LRflow.215" edges="inL outR" />
<vehicle type="noVar" depart="774" id="LRflow.215" route="route_LRflow.215" />
<route id="route_LRflow.216" edges="inL outR" />
<vehicle type="noVar" depart="778" id="LRflow.216" route="route_LRflow.216" />
<route id="route_LRflow.217" edges="inL outR" />
<vehicle type="noVar" depart="781" id="LRflow.217" route="route_LRflow.217" />
<route id="route_LRflow.218" edges="inL outR" />
<vehicle type="noVar" depart="785" id="LRflow.218" route="route_LRflow.218" />
<route id="route_LRflow.219" edges="inL outR" />
<vehicle type="noVar" depart="789" id="LRflow.219" route="route_LRflow.219" />
<route id="route_LRflow.220" edges="inL outR" />
<vehicle type="noVar" depart="792" id="LRflow.220" route="route_LRflow.220" />
<route id="route_LRflow.221" edges="inL outR" />
<vehicle type="noVar" depart="796" id="LRflow.221" route="route_LRflow.221" />
<route id="route_LRflow.222" edges="inL outR" />
<vehicle type="noVar" depart="800" id="LRflow.222" route="route_LRflow.222" />
<route id="route_LRflow.223" edges="inL outR" />
<vehicle type="noVar" depart="803" id="LRflow.223" route="route_LRflow.223" />
<route id="route_LRflow.224" edges="inL outR" />
<vehicle type="noVar" depart="807" id="LRflow.224" route="route_LRflow.224" />
<route id="route_LRflow.225" edges="inL outR" />
<vehicle type="noVar" depart="810" id="LRflow.225" route="route_LRflow.225" />
<route id="route_LRflow.226" edges="inL outR" />
<vehicle type="noVar" depart="814" id="LRflow.226" route="route_LRflow.226" />
<route id="route_LRflow.227" edges="inL outR" />
<vehicle type="noVar" depart="818" id="LRflow.227" route="route_LRflow.227" />
<route id="route_LRflow.228" edges="inL outR" />
<vehicle type="noVar" depart="821" id="LRflow.228" route="route_LRflow.228" />
<route id="route_LRflow.229" edges="inL outR" />
<vehicle type="noVar" depart="825" id="LRflow.229" route="route_LRflow.229" />
<route id="route_LRflow.230" edges="inL outR" />
<vehicle type="noVar" depart="828" id="LRflow.230" route="route_LRflow.230" />
<route id="route_LRflow.231" edges="inL outR" />
<vehicle type="noVar" depart="832" id="LRflow.231" route="route_LRflow.231" />
<route id="route_LRflow.232" edges="inL outR" />
<vehicle type="noVar" depart="836" id="LRflow.232" route="route_LRflow.232" />
<route id="route_LRflow.233" edges="inL outR" />
<vehicle type="noVar" depart="839" id="LRflow.233" route="route_LRflow.233" />
<route id="route_LRflow.234" edges="inL outR" />
<vehicle type="noVar" depart="843" id="LRflow.234" route="route_LRflow.234" />
<route id="route_LRflow.235" edges="inL outR" />