<?xml version="1.0" encoding="UTF-8"?>
<routes xmlns:xsi="http://www.w3.org/2001/XMLSchema-instance" xsi:noNamespaceSchemaLocation="http://sumo.dlr.de/xsd/routes_file.xsd">

<vType id="noVar" speedFactor="1.0" speedDev="0.0"/>
<route id="route_3.0" edges="3 4" />
<vehicle type="noVar" depart="69" id="3.0" route="route_3.0" />
<route id="route_3.2" edges="3 4" />
<vehicle type="noVar" depart="142" id="3.2" route="route_3.2" />
<route id="route_3.1" edges="3 4" />
<vehicle type="noVar" depart="534" id="3.1" route="route_3.1" />
<route id="route_1.4" edges="1 2" />
<vehicle type="noVar" depart="539" id="1.4" route="route_1.4" />
<route id="route_1.1" edges="1 2" />
<vehicle type="noVar" depart="1120" id="1.1" route="route_1.1" />
<route id="route_3.3" edges="3 4" />
<vehicle type="noVar" depart="1254" id="3.3" route="route_3.3" />
<route id="route_1.0" edges="1 2" />
<vehicle type="noVar" depart="1796" id="1.0" route="route_1.0" />
<route id="route_1.2" edges="1 2" />
<vehicle type="noVar" depart="2259" id="1.2" route="route_1.2" />
<route id="route_1.7" edges="1 2" />
<vehicle type="noVar" depart="2267" id="1.7" route="route_1.7" />
<route id="route_1.9" edges="1 2" />
<vehicle type="noVar" depart="2297" id="1.9" route="route_1.9" />
<route id="route_1.5" edges="1 2" />
<vehicle type="noVar" depart="2622" id="1.5" route="route_1.5" />
<route id="route_1.6" edges="1 2" />
<vehicle type="noVar" depart="2844" id="1.6" route="route_1.6" />
<route id="route_3.4" edges="3 4" />
<vehicle type="noVar" depart="2956" id="3.4" route="route_3.4" />
<route id="route_1.8" edges="1 2" />
<vehicle type="noVar" depart="3207" id="1.8" route="route_1.8" />
<route id="route_1.3" edges="1 2" />
<vehicle type="noVar" depart="3380" id="1.3" route="route_1.3" />
</routes>
