<?xml version="1.0" encoding="UTF-8"?>
<routes xmlns:xsi="http://www.w3.org/2001/XMLSchema-instance" xsi:noNamespaceSchemaLocation="http://sumo.dlr.de/xsd/routes_file.xsd">

<vType id="noVar" speedFactor="1.0" speedDev="0.0"/>
<trip type="noVar" depart="0" id="LRflow.0" from="inL" to="outR"/>
<trip type="noVar" depart="3" id="LRflow.1" from="inL" to="outR"/>
<trip type="noVar" depart="7" id="LRflow.2" from="inL" to="outR"/>
<trip type="noVar" depart="10" id="LRflow.3" from="inL" to="outR"/>
<trip type="noVar" depart="14" id="LRflow.4" from="inL" to="outR"/>
<trip type="noVar" depart="18" id="LRflow.5" from="inL" to="outR"/>
<trip type="noVar" depart="21" id="LRflow.6" from="inL" to="outR"/>
<trip type="noVar" depart="25" id="LRflow.7" from="inL" to="outR"/>
<trip type="noVar" depart="28" id="LRflow.8" from="inL" to="outR"/>
<trip type="noVar" depart="32" id="LRflow.9" from="inL" to="outR"/>
<trip type="noVar" depart="36" id="LRflow.10" from="inL" to="outR"/>
<trip type="noVar" depart="39" id="LRflow.11" from="inL" to="outR"/>
<trip type="noVar" depart="43" id="LRflow.12" from="inL" to="outR"/>
<trip type="noVar" depart="46" id="LRflow.13" from="inL" to="outR"/>
<trip type="noVar" depart="50" id="LRflow.14" from="inL" to="outR"/>
<trip type="noVar" depart="54" id="LRflow.15" from="inL" to="outR"/>
<trip type="noVar" depart="57" id="LRflow.16" from="inL" to="outR"/>
<trip type="noVar" depart="61" id="LRflow.17" from="inL" to="outR"/>
<trip type="noVar" depart="64" id="LRflow.18" from="inL" to="outR"/>
<trip type="noVar" depart="68" id="LRflow.19" from="inL" to="outR"/>
<trip type="noVar" depart="72" id="LRflow.20" from="inL" to="outR"/>
<trip type="noVar" depart="75" id="LRflow.21" from="inL" to="outR"/>
<trip type="noVar" depart="79" id="LRflow.22" from="inL" to="outR"/>
<trip type="noVar" depart="82" id="LRflow.23" from="inL" to="outR"/>
<trip type="noVar" depart="86" id="LRflow.24" from="inL" to="outR"/>
<trip type="noVar" depart="90" id="LRflow.25" from="inL" to="outR"/>
<trip type="noVar" depart="93" id="LRflow.26" from="inL" to="outR"/>
<trip type="noVar" depart="97" id="LRflow.27" from="inL" to="outR"/>
<trip type="noVar" depart="100" id="LRflow.28" from="inL" to="outR"/>
<trip type="noVar" depart="104" id="LRflow.29" from="inL" to="outR"/>
<trip type="noVar" depart="108" id="LRflow.30" from="inL" to="outR"/>
<trip type="noVar" depart="111" id="LRflow.31" from="inL" to="outR"/>
<trip type="noVar" depart="115" id="LRflow.32" from="inL" to="outR"/>
<trip type="noVar" depart="118" id="LRflow.33" from="inL" to="outR"/>
<trip type="noVar" depart="122" id="LRflow.34" from="inL" to="outR"/>
<trip type="noVar" depart="126" id="LRflow.35" from="inL" to="outR"/>
<trip type="noVar" depart="129" id="LRflow.36" from="inL" to="outR"/>
<trip type="noVar" depart="133" id="LRflow.37" from="inL" to="outR"/>
<trip type="noVar" depart="136" id="LRflow.38" from="inL" to="outR"/>
<trip type="noVar" depart="140" id="LRflow.39" from="inL" to="outR"/>
<trip type="noVar" depart="144" id="LRflow.40" from="inL" to="outR"/>
<trip type="noVar" depart="147" id="LRflow.41" from="inL" to="outR"/>
<trip type="noVar" depart="151" id="LRflow.42" from="inL" to="outR"/>
<trip type="noVar" depart="154" id="LRflow.43" from="inL" to="outR"/>
<trip type="noVar" depart="158" id="LRflow.44" from="inL" to="outR"/>
<trip type="noVar" depart="162" id="LRflow.45" from="inL" to="outR"/>
<trip type="noVar" depart="165" id="LRflow.46" from="inL" to="outR"/>
<trip type="noVar" depart="169" id="LRflow.47" from="inL" to="outR"/>
<trip type="noVar" depart="172" id="LRflow.48" from="inL" to="outR"/>
<trip type="noVar" depart="176" id="LRflow.49" from="inL" to="outR"/>
<trip type="noVar" depart="180" id="LRflow.50" from="inL" to="outR"/>
<trip type="noVar" depart="183" id="LRflow.51" from="inL" to="outR"/>
<trip type="noVar" depart="187" id="LRflow.52" from="inL" to="outR"/>
<trip type="noVar" depart="190" id="LRflow.53" from="inL" to="outR"/>
<trip type="noVar" depart="194" id="LRflow.54" from="inL" to="outR"/>
<trip type="noVar" depart="198" id="LRflow.55" from="inL" to="outR"/>
<trip type="noVar" depart="201" id="LRflow.56" from="inL" to="outR"/>
<trip type="noVar" depart="205" id="LRflow.57" from="inL" to="outR"/>
<trip type="noVar" depart="209" id="LRflow.58" from="inL" to="outR"/>
<trip type="noVar" depart="212" id="LRflow.59" from="inL" to="outR"/>
<trip type="noVar" depart="216" id="LRflow.60" from="inL" to="outR"/>
<trip type="noVar" depart="219" id="LRflow.61" from="inL" to="outR"/>
<trip type="noVar" depart="223" id="LRflow.62" from="inL" to="outR"/>
<trip type="noVar" depart="227" id="LRflow.63" from="inL" to="outR"/>
<trip type="noVar" depart="230" id="LRflow.64" from="inL" to="outR"/>
<trip type="noVar" depart="234" id="LRflow.65" from="inL" to="outR"/>
<trip type="noVar" depart="237" id="LRflow.66" from="inL" to="outR"/>
<trip type="noVar" depart="241" id="LRflow.67" from="inL" to="outR"/>
<trip type="noVar" depart="245" id="LRflow.68" from="inL" to="outR"/>
<trip type="noVar" depart="248" id="LRflow.69" from="inL" to="outR"/>
<trip type="noVar" depart="252" id="LRflow.70" from="inL" to="outR"/>
<trip type="noVar" depart="255" id="LRflow.71" from="inL" to="outR"/>
<trip type="noVar" depart="259" id="LRflow.72" from="inL" to="outR"/>
<trip type="noVar" depart="263" id="LRflow.73" from="inL" to="outR"/>
<trip type="noVar" depart="266" id="LRflow.74" from="inL" to="outR"/>
<trip type="noVar" depart="270" id="LRflow.75" from="inL" to="outR"/>
<trip type="noVar" depart="273" id="LRflow.76" from="inL" to="outR"/>
<trip type="noVar" depart="277" id="LRflow.77" from="inL" to="outR"/>
<trip type="noVar" depart="281" id="LRflow.78" from="inL" to="outR"/>
<trip type="noVar" depart="284" id="LRflow.79" from="inL" to="outR"/>
<trip type="noVar" depart="288" id="LRflow.80" from="inL" to="outR"/>
<trip type="noVar" depart="291" id="LRflow.81" from="inL" to="outR"/>
<trip type="noVar" depart="295" id="LRflow.82" from="inL" to="outR"/>
<trip type="noVar" depart="299" id="LRflow.83" from="inL" to="outR"/>
<trip type="noVar" depart="302" id="LRflow.84" from="inL" to="outR"/>
<trip type="noVar" depart="306" id="LRflow.85" from="inL" to="outR"/>
<trip type="noVar" depart="309" id="LRflow.86" from="inL" to="outR"/>
<trip type="noVar" depart="313" id="LRflow.87" from="inL" to="outR"/>
<trip type="noVar" depart="317" id="LRflow.88" from="inL" to="outR"/>
<trip type="noVar" depart="320" id="LRflow.89" from="inL" to="outR"/>
<trip type="noVar" depart="324" id="LRflow.90" from="inL" to="outR"/>
<trip type="noVar" depart="327" id="LRflow.91" from="inL" to="outR"/>
<trip type="noVar" depart="331" id="LRflow.92" from="inL" to="outR"/>
<trip type="noVar" depart="335" id="LRflow.93" from="inL" to="outR"/>
<trip type="noVar" depart="338" id="LRflow.94" from="inL" to="outR"/>
<trip type="noVar" depart="342" id="LRflow.95" from="inL" to="outR"/>
<trip type="noVar" depart="345" id="LRflow.96" from="inL" to="outR"/>
<trip type="noVar" depart="349" id="LRflow.97" from="inL" to="outR"/>
<trip type="noVar" depart="353" id="LRflow.98" from="inL" to="outR"/>
<trip type="noVar" depart="356" id="LRflow.99" from="inL" to="outR"/>
<trip type="noVar" depart="360" id="LRflow.100" from="inL" to="outR"/>
<trip type="noVar" depart="363" id="LRflow.101" from="inL" to="outR"/>
<trip type="noVar" depart="367" id="LRflow.102" from="inL" to="outR"/>
<trip type="noVar" depart="371" id="LRflow.103" from="inL" to="outR"/>
<trip type="noVar" depart="374" id="LRflow.104" from="inL" to="outR"/>
<trip type="noVar" depart="378" id="LRflow.105" from="inL" to="outR"/>
<trip type="noVar" depart="381" id="LRflow.106" from="inL" to="outR"/>
<trip type="noVar" depart="385" id="LRflow.107" from="inL" to="outR"/>
<trip type="noVar" depart="389" id="LRflow.108" from="inL" to="outR"/>
<trip type="noVar" depart="392" id="LRflow.109" from="inL" to="outR"/>
<trip type="noVar" depart="396" id="LRflow.110" from="inL" to="outR"/>
<trip type="noVar" depart="400" id="LRflow.111" from="inL" to="outR"/>
<trip type="noVar" depart="403" id="LRflow.112" from="inL" to="outR"/>
<trip type="noVar" depart="407" id="LRflow.113" from="inL" to="outR"/>
<trip type="noVar" depart="410" id="LRflow.114" from="inL" to="outR"/>
<trip type="noVar" depart="414" id="LRflow.115" from="inL" to="outR"/>
<trip type="noVar" depart="418" id="LRflow.116" from="inL" to="outR"/>
<trip type="noVar" depart="421" id="LRflow.117" from="inL" to="outR"/>
<trip type="noVar" depart="425" id="LRflow.118" from="inL" to="outR"/>
<trip type="noVar" depart="428" id="LRflow.119" from="inL" to="outR"/>
<trip type="noVar" depart="432" id="LRflow.120" from="inL" to="outR"/>
<trip type="noVar" depart="436" id="LRflow.121" from="inL" to="outR"/>
<trip type="noVar" depart="439" id="LRflow.122" from="inL" to="outR"/>
<trip type="noVar" depart="443" id="LRflow.123" from="inL" to="outR"/>
<trip type="noVar" depart="446" id="LRflow.124" from="inL" to="outR"/>
<trip type="noVar" depart="450" id="LRflow.125" from="inL" to="outR"/>
<trip type="noVar" depart="454" id="LRflow.126" from="inL" to="outR"/>
<trip type="noVar" depart="457" id="LRflow.127" from="inL" to="outR"/>
<trip type="noVar" depart="461" id="LRflow.128" from="inL" to="outR"/>
<trip type="noVar" depart="464" id="LRflow.129" from="inL" to="outR"/>
<trip type="noVar" depart="468" id="LRflow.130" from="inL" to="outR"/>
<trip type="noVar" depart="472" id="LRflow.131" from="inL" to="outR"/>
<trip type="noVar" depart="475" id="LRflow.132" from="inL" to="outR"/>
<trip type="noVar" depart="479" id="LRflow.133" from="inL" to="outR"/>
<trip type="noVar" depart="482" id="LRflow.134" from="inL" to="outR"/>
<trip type="noVar" depart="486" id="LRflow.135" from="inL" to="outR"/>
<trip type="noVar" depart="490" id="LRflow.136" from="inL" to="outR"/>
<trip type="noVar" depart="493" id="LRflow.137" from="inL" to="outR"/>
<trip type="noVar" depart="497" id="LRflow.138" from="inL" to="outR"/>
<trip type="noVar" depart="500" id="LRflow.139" from="inL" to="outR"/>
<trip type="noVar" depart="504" id="LRflow.140" from="inL" to="outR"/>
<trip type="noVar" depart="508" id="LRflow.141" from="inL" to="outR"/>
<trip type="noVar" depart="511" id="LRflow.142" from="inL" to="outR"/>
<trip type="noVar" depart="515" id="LRflow.143" from="inL" to="outR"/>
<trip type="noVar" depart="518" id="LRflow.144" from="inL" to="outR"/>
<trip type="noVar" depart="522" id="LRflow.145" from="inL" to="outR"/>
<trip type="noVar" depart="526" id="LRflow.146" from="inL" to="outR"/>
<trip type="noVar" depart="529" id="LRflow.147" from="inL" to="outR"/>
<trip type="noVar" depart="533" id="LRflow.148" from="inL" to="outR"/>
<trip type="noVar" depart="536" id="LRflow.149" from="inL" to="outR"/>
<trip type="noVar" depart="540" id="LRflow.150" from="inL" to="outR"/>
<trip type="noVar" depart="544" id="LRflow.151" from="inL" to="outR"/>
<trip type="noVar" depart="547" id="LRflow.152" from="inL" to="outR"/>
<trip type="noVar" depart="551" id="LRflow.153" from="inL" to="outR"/>
<trip type="noVar" depart="554" id="LRflow.154" from="inL" to="outR"/>
<trip type="noVar" depart="558" id="LRflow.155" from="inL" to="outR"/>
<trip type="noVar" depart="562" id="LRflow.156" from="inL" to="outR"/>
<trip type="noVar" depart="565" id="LRflow.157" from="inL" to="outR"/>
<trip type="noVar" depart="569" id="LRflow.158" from="inL" to="outR"/>
<trip type="noVar" depart="572" id="LRflow.159" from="inL" to="outR"/>
<trip type="noVar" depart="576" id="LRflow.160" from="inL" to="outR"/>
<trip type="noVar" depart="580" id="LRflow.161" from="inL" to="outR"/>
<trip type="noVar" depart="583" id="LRflow.162" from="inL" to="outR"/>
<trip type="noVar" depart="587" id="LRflow.163" from="inL" to="outR"/>
<trip type="noVar" depart="590" id="LRflow.164" from="inL" to="outR"/>
<trip type="noVar" depart="594" id="LRflow.165" from="inL" to="outR"/>
<trip type="noVar" depart="598" id="LRflow.166" from="inL" to="outR"/>
<trip type="noVar" depart="601" id="LRflow.167" from="inL" to="outR"/>
<trip type="noVar" depart="605" id="LRflow.168" from="inL" to="outR"/>
<trip type="noVar" depart="609" id="LRflow.169" from="inL" to="outR"/>
<trip type="noVar" depart="612" id="LRflow.170" from="inL" to="outR"/>
<trip type="noVar" depart="616" id="LRflow.171" from="inL" to="outR"/>
<trip type="noVar" depart="619" id="LRflow.172" from="inL" to="outR"/>
<trip type="noVar" depart="623" id="LRflow.173" from="inL" to="outR"/>
<trip type="noVar" depart="627" id="LRflow.174" from="inL" to="outR"/>
<trip type="noVar" depart="630" id="LRflow.175" from="inL" to="outR"/>
<trip type="noVar" depart="634" id="LRflow.176" from="inL" to="outR"/>
<trip type="noVar" depart="637" id="LRflow.177" from="inL" to="outR"/>
<trip type="noVar" depart="641" id="LRflow.178" from="inL" to="outR"/>
<trip type="noVar" depart="645" id="LRflow.179" from="inL" to="outR"/>
<trip type="noVar" depart="648" id="LRflow.180" from="inL" to="outR"/>
<trip type="noVar" depart="652" id="LRflow.181" from="inL" to="outR"/>
<trip type="noVar" depart="655" id="LRflow.182" from="inL" to="outR"/>
<trip type="noVar" depart="659" id="LRflow.183" from="inL" to="outR"/>
<trip type="noVar" depart="663" id="LRflow.184" from="inL" to="outR"/>
<trip type="noVar" depart="666" id="LRflow.185" from="inL" to="outR"/>
<trip type="noVar" depart="670" id="LRflow.186" from="inL" to="outR"/>
<trip type="noVar" depart="673" id="LRflow.187" from="inL" to="outR"/>
<trip type="noVar" depart="677" id="LRflow.188" from="inL" to="outR"/>
<trip type="noVar" depart="681" id="LRflow.189" from="inL" to="outR"/>
<trip type="noVar" depart="684" id="LRflow.190" from="inL" to="outR"/>
<trip type="noVar" depart="688" id="LRflow.191" from="inL" to="outR"/>
<trip type="noVar" depart="691" id="LRflow.192" from="inL" to="outR"/>
<trip type="noVar" depart="695" id="LRflow.193" from="inL" to="outR"/>
<trip type="noVar" depart="699" id="LRflow.194" from="inL" to="outR"/>
<trip type="noVar" depart="702" id="LRflow.195" from="inL" to="outR"/>
<trip type="noVar" depart="706" id="LRflow.196" from="inL" to="outR"/>
<trip type="noVar" depart="709" id="LRflow.197" from="inL" to="outR"/>
<trip type="noVar" depart="713" id="LRflow.198" from="inL" to="outR"/>
<trip type="noVar" depart="717" id="LRflow.199" from="inL" to="outR"/>
<trip type="noVar" depart="720" id="LRflow.200" from="inL" to="outR"/>
<trip type="noVar" depart="724" id="LRflow.201" from="inL" to="outR"/>
<trip type="noVar" depart="727" id="LRflow.202" from="inL" to="outR"/>
<trip type="noVar" depart="731" id="LRflow.203" from="inL" to="outR"/>
<trip type="noVar" depart="735" id="LRflow.204" from="inL" to="outR"/>
<trip type="noVar" depart="738" id="LRflow.205" from="inL" to="outR"/>
<trip type="noVar" depart="742" id="LRflow.206" from="inL" to="outR"/>
<trip type="noVar" depart="745" id="LRflow.207" from="inL" to="outR"/>
<trip type="noVar" depart="749" id="LRflow.208" from="inL" to="outR"/>
<trip type="noVar" depart="753" id="LRflow.209" from="inL" to="outR"/>
<trip type="noVar" depart="756" id="LRflow.210" from="inL" to="outR"/>
<trip type="noVar" depart="760" id="LRflow.211" from="inL" to="outR"/>
<trip type="noVar" depart="763" id="LRflow.212" from="inL" to="outR"/>
<trip type="noVar" depart="767" id="LRflow.213" from="inL" to="outR"/>
<trip type="noVar" depart="771" id="LRflow.214" from="inL" to="outR"/>
<trip type="noVar" depart="774" id="LRflow.215" from="inL" to="outR"/>
<trip type="noVar" depart="778" id="LRflow.216" from="inL" to="outR"/>
<trip type="noVar" depart="781" id="LRflow.217" from="inL" to="outR"/>
<trip type="noVar" depart="785" id="LRflow.218" from="inL" to="outR"/>
<trip type="noVar" depart="789" id="LRflow.219" from="inL" to="outR"/>
<trip type="noVar" depart="792" id="LRflow.220" from="inL" to="outR"/>
<trip type="noVar" depart="796" id="LRflow.221" from="inL" to="outR"/>
<trip type="noVar" depart="800" id="LRflow.222" from="inL" to="outR"/>
<trip type="noVar" depart="803" id="LRflow.223" from="inL" to="outR"/>
<trip type="noVar" depart="807" id="LRflow.224" from="inL" to="outR"/>
<trip type="noVar" depart="810" id="LRflow.225" from="inL" to="outR"/>
<trip type="noVar" depart="814" id="LRflow.226" from="inL" to="outR"/>
<trip type="noVar" depart="818" id="LRflow.227" from="inL" to="outR"/>
<trip type="noVar" depart="821" id="LRflow.228" from="inL" to="outR"/>
<trip type="noVar" depart="825" id="LRflow.229" from="inL" to="outR"/>
<trip type="noVar" depart="828" id="LRflow.230" from="inL" to="outR"/>
<trip type="noVar" depart="832" id="LRflow.231" from="inL" to="outR"/>
<trip type="noVar" depart="836" id="LRflow.232" from="inL" to="outR"/>
<trip type="noVar" depart="839" id="LRflow.233" from="inL" to="outR"/>
<trip type="noVar" depart="843" id="LRflow.234" from="inL" to="outR"/>
<trip type="noVar" depart="846" id="LRflow.235" from="inL" to="outR"/>
<trip type="noVar" depart="850" id="LRflow.236" from="inL" to="outR"/>
<trip type="noVar" depart="854" id="LRflow.237" from="inL" to="outR"/>
<trip type="noVar" depart="857" id="LRflow.238" from="inL" to="outR"/>
<trip type="noVar" depart="861" id="LRflow.239" from="inL" to="outR"/>
<trip type="noVar" depart="864" id="LRflow.240" from="inL" to="outR"/>
<trip type="noVar" depart="868" id="LRflow.241" from="inL" to="outR"/>
<trip type="noVar" depart="872" id="LRflow.242" from="inL" to="outR"/>
<trip type="noVar" depart="875" id="LRflow.243" from="inL" to="outR"/>
<trip type="noVar" depart="879" id="LRflow.244" from="inL" to="outR"/>
<trip type="noVar" depart="882" id="LRflow.245" from="inL" to="outR"/>
<trip type="noVar" depart="886" id="LRflow.246" from="inL" to="outR"/>
<trip type="noVar" depart="890" id="LRflow.247" from="inL" to="outR"/>
<trip type="noVar" depart="893" id="LRflow.248" from="inL" to="outR"/>
<trip type="noVar" depart="897" id="LRflow.249" from="inL" to="outR"/>
<trip type="noVar" depart="900" id="LRflow.250" from="inL" to="outR"/>
<trip type="noVar" depart="904" id="LRflow.251" from="inL" to="outR"/>
<trip type="noVar" depart="908" id="LRflow.252" from="inL" to="outR"/>
<trip type="noVar" depart="911" id="LRflow.253" from="inL" to="outR"/>
<trip type="noVar" depart="915" id="LRflow.254" from="inL" to="outR"/>
<trip type="noVar" depart="918" id="LRflow.255" from="inL" to="outR"/>
<trip type="noVar" depart="922" id="LRflow.256" from="inL" to="outR"/>
<trip type="noVar" depart="926" id="LRflow.257" from="inL" to="outR"/>
<trip type="noVar" depart="929" id="LRflow.258" from="inL" to="outR"/>
<trip type="noVar" depart="933" id="LRflow.259" from="inL" to="outR"/>
<trip type="noVar" depart="936" id="LRflow.260" from="inL" to="outR"/>
<trip type="noVar" depart="940" id="LRflow.261" from="inL" to="outR"/>
<trip type="noVar" depart="944" id="LRflow.262" from="inL" to="outR"/>
<trip type="noVar" depart="947" id="LRflow.263" from="inL" to="outR"/>
<trip type="noVar" depart="951" id="LRflow.264" from="inL" to="outR"/>
<trip type="noVar" depart="954" id="LRflow.265" from="inL" to="outR"/>
<trip type="noVar" depart="958" id="LRflow.266" from="inL" to="outR"/>
<trip type="noVar" depart="962" id="LRflow.267" from="inL" to="outR"/>
<trip type="noVar" depart="965" id="LRflow.268" from="inL" to="outR"/>
<trip type="noVar" depart="969" id="LRflow.269" from="inL" to="outR"/>
<trip type="noVar" depart="972" id="LRflow.270" from="inL" to="outR"/>
<trip type="noVar" depart="976" id="LRflow.271" from="inL" to="outR"/>
<trip type="noVar" depart="980" id="LRflow.272" from="inL" to="outR"/>
<trip type="noVar" depart="983" id="LRflow.273" from="inL" to="outR"/>
<trip type="noVar" depart="987" id="LRflow.274" from="inL" to="outR"/>
<trip type="noVar" depart="990" id="LRflow.275" from="inL" to="outR"/>
<trip type="noVar" depart="994" id="LRflow.276" from="inL" to="outR"/>
<trip type="noVar" depart="998" id="LRflow.277" from="inL" to="outR"/>
<trip type="noVar" depart="1001" id="LRflow.278" from="inL" to="outR"/>
<trip type="noVar" depart="1005" id="LRflow.279" from="inL" to="outR"/>
<trip type="noVar" depart="1009" id="LRflow.280" from="inL" to="outR"/>
<trip type="noVar" depart="1012" id="LRflow.281" from="inL" to="outR"/>
<trip type="noVar" depart="1016" id="LRflow.282" from="inL" to="outR"/>
<trip type="noVar" depart="1019" id="LRflow.283" from="inL" to="outR"/>
<trip type="noVar" depart="1023" id="LRflow.284" from="inL" to="outR"/>
<trip type="noVar" depart="1027" id="LRflow.285" from="inL" to="outR"/>
<trip type="noVar" depart="1030" id="LRflow.286" from="inL" to="outR"/>
<trip type="noVar" depart="1034" id="LRflow.287" from="inL" to="outR"/>
<trip type="noVar" depart="1037" id="LRflow.288" from="inL" to="outR"/>
<trip type="noVar" depart="1041" id="LRflow.289" from="inL" to="outR"/>
<trip type="noVar" depart="1045" id="LRflow.290" from="inL" to="outR"/>
<trip type="noVar" depart="1048" id="LRflow.291" from="inL" to="outR"/>
<trip type="noVar" depart="1052" id="LRflow.292" from="inL" to="outR"/>
<trip type="noVar" depart="1055" id="LRflow.293" from="inL" to="outR"/>
<trip type="noVar" depart="1059" id="LRflow.294" from="inL" to="outR"/>
<trip type="noVar" depart="1063" id="LRflow.295" from="inL" to="outR"/>
<trip type="noVar" depart="1066" id="LRflow.296" from="inL" to="outR"/>
<trip type="noVar" depart="1070" id="LRflow.297" from="inL" to="outR"/>
<trip type="noVar" depart="1073" id="LRflow.298" from="inL" to="outR"/>
<trip type="noVar" depart="1077" id="LRflow.299" from="inL" to="outR"/>
<trip type="noVar" depart="1081" id="LRflow.300" from="inL" to="outR"/>
<trip type="noVar" depart="1084" id="LRflow.301" from="inL" to="outR"/>
<trip type="noVar" depart="1088" id="LRflow.302" from="inL" to="outR"/>
<trip type="noVar" depart="1091" id="LRflow.303" from="inL" to="outR"/>
<trip type="noVar" depart="1095" id="LRflow.304" from="inL" to="outR"/>
<trip type="noVar" depart="1099" id="LRflow.305" from="inL" to="outR"/>
<trip type="noVar" depart="1102" id="LRflow.306" from="inL" to="outR"/>
<trip type="noVar" depart="1106" id="LRflow.307" from="inL" to="outR"/>
<trip type="noVar" depart="1109" id="LRflow.308" from="inL" to="outR"/>
<trip type="noVar" depart="1113" id="LRflow.309" from="inL" to="outR"/>
<trip type="noVar" depart="1117" id="LRflow.310" from="inL" to="outR"/>
<trip type="noVar" depart="1120" id="LRflow.311" from="inL" to="outR"/>
<trip type="noVar" depart="1124" id="LRflow.312" from="inL" to="outR"/>
<trip type="noVar" depart="1127" id="LRflow.313" from="inL" to="outR"/>
<trip type="noVar" depart="1131" id="LRflow.314" from="inL" to="outR"/>
<trip type="noVar" depart="1135" id="LRflow.315" from="inL" to="outR"/>
<trip type="noVar" depart="1138" id="LRflow.316" from="inL" to="outR"/>
<trip type="noVar" depart="1142" id="LRflow.317" from="inL" to="outR"/>
<trip type="noVar" depart="1145" id="LRflow.318" from="inL" to="outR"/>
<trip type="noVar" depart="1149" id="LRflow.319" from="inL" to="outR"/>
<trip type="noVar" depart="1153" id="LRflow.320" from="inL" to="outR"/>
<trip type="noVar" depart="1156" id="LRflow.321" from="inL" to="outR"/>
<trip type="noVar" depart="1160" id="LRflow.322" from="inL" to="outR"/>
<trip type="noVar" depart="1163" id="LRflow.323" from="inL" to="outR"/>
<trip type="noVar" depart="1167" id="LRflow.324" from="inL" to="outR"/>
<trip type="noVar" depart="1171" id="LRflow.325" from="inL" to="outR"/>
<trip type="noVar" depart="1174" id="LRflow.326" from="inL" to="outR"/>
<trip type="noVar" depart="1178" id="LRflow.327" from="inL" to="outR"/>
<trip type="noVar" depart="1181" id="LRflow.328" from="inL" to="outR"/>
<trip type="noVar" depart="1185" id="LRflow.329" from="inL" to="outR"/>
<trip type="noVar" depart="1189" id="LRflow.330" from="inL" to="outR"/>
<trip type="noVar" depart="1192" id="LRflow.331" from="inL" to="outR"/>
<trip type="noVar" depart="1196" id="LRflow.332" from="inL" to="outR"/>
<trip type="noVar" depart="1200" id="LRflow.333" from="inL" to="outR"/>
<trip type="noVar" depart="1203" id="LRflow.334" from="inL" to="outR"/>
<trip type="noVar" depart="1207" id="LRflow.335" from="inL" to="outR"/>
<trip type="noVar" depart="1210" id="LRflow.336" from="inL" to="outR"/>
<trip type="noVar" depart="1214" id="LRflow.337" from="inL" to="outR"/>
<trip type="noVar" depart="1218" id="LRflow.338" from="inL" to="outR"/>
<trip type="noVar" depart="1221" id="LRflow.339" from="inL" to="outR"/>
<trip type="noVar" depart="1225" id="LRflow.340" from="inL" to="outR"/>
<trip type="noVar" depart="1228" id="LRflow.341" from="inL" to="outR"/>
<trip type="noVar" depart="1232" id="LRflow.342" from="inL" to="outR"/>
<trip type="noVar" depart="1236" id="LRflow.343" from="inL" to="outR"/>
<trip type="noVar" depart="1239" id="LRflow.344" from="inL" to="outR"/>
<trip type="noVar" depart="1243" id="LRflow.345" from="inL" to="outR"/>
<trip type="noVar" depart="1246" id="LRflow.346" from="inL" to="outR"/>
<trip type="noVar" depart="1250" id="LRflow.347" from="inL" to="outR"/>
<trip type="noVar" depart="1254" id="LRflow.348" from="inL" to="outR"/>
<trip type="noVar" depart="1257" id="LRflow.349" from="inL" to="outR"/>
<trip type="noVar" depart="1261" id="LRflow.350" from="inL" to="outR"/>
<trip type="noVar" depart="1264" id="LRflow.351" from="inL" to="outR"/>
<trip type="noVar" depart="1268" id="LRflow.352" from="inL" to="outR"/>
<trip type="noVar" depart="1272" id="LRflow.353" from="inL" to="outR"/>
<trip type="noVar" depart="1275" id="LRflow.354" from="inL" to="outR"/>
<trip type="noVar" depart="1279" id="LRflow.355" from="inL" to="outR"/>
<trip type="noVar" depart="1282" id="LRflow.356" from="inL" to="outR"/>
<trip type="noVar" depart="1286" id="LRflow.357" from="inL" to="outR"/>
<trip type="noVar" depart="1290" id="LRflow.358" from="inL" to="outR"/>
<trip type="noVar" depart="1293" id="LRflow.359" from="inL" to="outR"/>
<trip type="noVar" depart="1297" id="LRflow.360" from="inL" to="outR"/>
<trip type="noVar" depart="1300" id="LRflow.361" from="inL" to="outR"/>
<trip type="noVar" depart="1304" id="LRflow.362" from="inL" to="outR"/>
<trip type="noVar" depart="1308" id="LRflow.363" from="inL" to="outR"/>
<trip type="noVar" depart="1311" id="LRflow.364" from="inL" to="outR"/>
<trip type="noVar" depart="1315" id="LRflow.365" from="inL" to="outR"/>
<trip type="noVar" depart="1318" id="LRflow.366" from="inL" to="outR"/>
<trip type="noVar" depart="1322" id="LRflow.367" from="inL" to="outR"/>
<trip type="noVar" depart="1326" id="LRflow.368" from="inL" to="outR"/>
<trip type="noVar" depart="1329" id="LRflow.369" from="inL" to="outR"/>
<trip type="noVar" depart="1333" id="LRflow.370" from="inL" to="outR"/>
<trip type="noVar" depart="1336" id="LRflow.371" from="inL" to="outR"/>
<trip type="noVar" depart="1340" id="LRflow.372" from="inL" to="outR"/>
<trip type="noVar" depart="1344" id="LRflow.373" from="inL" to="outR"/>
<trip type="noVar" depart="1347" id="LRflow.374" from="inL" to="outR"/>
<trip type="noVar" depart="1351" id="LRflow.375" from="inL" to="outR"/>
<trip type="noVar" depart="1354" id="LRflow.376" from="inL" to="outR"/>
<trip type="noVar" depart="1358" id="LRflow.377" from="inL" to="outR"/>
<trip type="noVar" depart="1362" id="LRflow.378" from="inL" to="outR"/>
<trip type="noVar" depart="1365" id="LRflow.379" from="inL" to="outR"/>
<trip type="noVar" depart="1369" id="LRflow.380" from="inL" to="outR"/>
<trip type="noVar" depart="1372" id="LRflow.381" from="inL" to="outR"/>
<trip type="noVar" depart="1376" id="LRflow.382" from="inL" to="outR"/>
<trip type="noVar" depart="1380" id="LRflow.383" from="inL" to="outR"/>
<trip type="noVar" depart="1383" id="LRflow.384" from="inL" to="outR"/>
<trip type="noVar" depart="1387" id="LRflow.385" from="inL" to="outR"/>
<trip type="noVar" depart="1390" id="LRflow.386" from="inL" to="outR"/>
<trip type="noVar" depart="1394" id="LRflow.387" from="inL" to="outR"/>
<trip type="noVar" depart="1398" id="LRflow.388" from="inL" to="outR"/>
<trip type="noVar" depart="1401" id="LRflow.389" from="inL" to="outR"/>
<trip type="noVar" depart="1405" id="LRflow.390" from="inL" to="outR"/>
<trip type="noVar" depart="1409" id="LRflow.391" from="inL" to="outR"/>
<trip type="noVar" depart="1412" id="LRflow.392" from="inL" to="outR"/>
<trip type="noVar" depart="1416" id="LRflow.393" from="inL" to="outR"/>
<trip type="noVar" depart="1419" id="LRflow.394" from="inL" to="outR"/>
<trip type="noVar" depart="1423" id="LRflow.395" from="inL" to="outR"/>
<trip type="noVar" depart="1427" id="LRflow.396" from="inL" to="outR"/>
<trip type="noVar" depart="1430" id="LRflow.397" from="inL" to="outR"/>
<trip type="noVar" depart="1434" id="LRflow.398" from="inL" to="outR"/>
<trip type="noVar" depart="1437" id="LRflow.399" from="inL" to="outR"/>
<trip type="noVar" depart="1441" id="LRflow.400" from="inL" to="outR"/>
<trip type="noVar" depart="1445" id="LRflow.401" from="inL" to="outR"/>
<trip type="noVar" depart="1448" id="LRflow.402" from="inL" to="outR"/>
<trip type="noVar" depart="1452" id="LRflow.403" from="inL" to="outR"/>
<trip type="noVar" depart="1455" id="LRflow.404" from="inL" to="outR"/>
<trip type="noVar" depart="1459" id="LRflow.405" from="inL" to="outR"/>
<trip type="noVar" depart="1463" id="LRflow.406" from="inL" to="outR"/>
<trip type="noVar" depart="1466" id="LRflow.407" from="inL" to="outR"/>
<trip type="noVar" depart="1470" id="LRflow.408" from="inL" to="outR"/>
<trip type="noVar" depart="1473" id="LRflow.409" from="inL" to="outR"/>
<trip type="noVar" depart="1477" id="LRflow.410" from="inL" to="outR"/>
<trip type="noVar" depart="1481" id="LRflow.411" from="inL" to="outR"/>
<trip type="noVar" depart="1484" id="LRflow.412" from="inL" to="outR"/>
<trip type="noVar" depart="1488" id="LRflow.413" from="inL" to="outR"/>
<trip type="noVar" depart="1491" id="LRflow.414" from="inL" to="outR"/>
<trip type="noVar" depart="1495" id="LRflow.415" from="inL" to="outR"/>
<trip type="noVar" depart="1499" id="LRflow.416" from="inL" to="outR"/>
<trip type="noVar" depart="1502" id="LRflow.417" from="inL" to="outR"/>
<trip type="noVar" depart="1506" id="LRflow.418" from="inL" to="outR"/>