<?xml version="1.0" encoding="UTF-8"?>
<routes xmlns:xsi="http://www.w3.org/2001/XMLSchema-instance" xsi:noNamespaceSchemaLocation="http://sumo.dlr.de/xsd/routes_file.xsd">

<vType id="noVar" speedFactor="1.0" speedDev="0.0"/>
<trip type="noVar" depart="0" id="RLflow.0" from="inR" to="outL"/>
<trip type="noVar" depart="0" id="LUflow.0" from="inL" to="outR2"/>
<trip type="noVar" depart="0" id="UD1flow.0" from="inU1" to="outD1"/>
<trip type="noVar" depart="0" id="UD2flow.0" from="inU2a" to="outD2"/>
<trip type="noVar" depart="4" id="RLflow.1" from="inR" to="outL"/>
<trip type="noVar" depart="8" id="RLflow.2" from="inR" to="outL"/>
<trip type="noVar" depart="10" id="UD1flow.1" from="inU1" to="outD1"/>
<trip type="noVar" depart="10" id="UD2flow.1" from="inU2a" to="outD2"/>
<trip type="noVar" depart="12" id="RLflow.3" from="inR" to="outL"/>
<trip type="noVar" depart="16" id="RLflow.4" from="inR" to="outL"/>
<trip type="noVar" depart="20" id="RLflow.5" from="inR" to="outL"/>
<trip type="noVar" depart="20" id="UD1flow.2" from="inU1" to="outD1"/>
<trip type="noVar" depart="20" id="UD2flow.2" from="inU2a" to="outD2"/>
<trip type="noVar" depart="24" id="RLflow.6" from="inR" to="outL"/>
<trip type="noVar" depart="28" id="RLflow.7" from="inR" to="outL"/>
<trip type="noVar" depart="30" id="UD1flow.3" from="inU1" to="outD1"/>
<trip type="noVar" depart="30" id="UD2flow.3" from="inU2a" to="outD2"/>
<trip type="noVar" depart="32" id="RLflow.8" from="inR" to="outL"/>
<trip type="noVar" depart="36" id="RLflow.9" from="inR" to="outL"/>
<trip type="noVar" depart="40" id="RLflow.10" from="inR" to="outL"/>
<trip type="noVar" depart="40" id="UD1flow.4" from="inU1" to="outD1"/>
<trip type="noVar" depart="40" id="UD2flow.4" from="inU2a" to="outD2"/>
<trip type="noVar" depart="44" id="RLflow.11" from="inR" to="outL"/>
<trip type="noVar" depart="48" id="RLflow.12" from="inR" to="outL"/>
<trip type="noVar" depart="50" id="UD1flow.5" from="inU1" to="outD1"/>
<trip type="noVar" depart="50" id="UD2flow.5" from="inU2a" to="outD2"/>
<trip type="noVar" depart="52" id="RLflow.13" from="inR" to="outL"/>
<trip type="noVar" depart="56" id="RLflow.14" from="inR" to="outL"/>
<trip type="noVar" depart="60" id="RLflow.15" from="inR" to="outL"/>
<trip type="noVar" depart="60" id="UD1flow.6" from="inU1" to="outD1"/>
<trip type="noVar" depart="60" id="UD2flow.6" from="inU2a" to="outD2"/>
<trip type="noVar" depart="64" id="RLflow.16" from="inR" to="outL"/>
<trip type="noVar" depart="68" id="RLflow.17" from="inR" to="outL"/>
<trip type="noVar" depart="70" id="UD1flow.7" from="inU1" to="outD1"/>
<trip type="noVar" depart="70" id="UD2flow.7" from="inU2a" to="outD2"/>
<trip type="noVar" depart="72" id="RLflow.18" from="inR" to="outL"/>
<trip type="noVar" depart="76" id="RLflow.19" from="inR" to="outL"/>
<trip type="noVar" depart="80" id="RLflow.20" from="inR" to="outL"/>
<trip type="noVar" depart="80" id="UD1flow.8" from="inU1" to="outD1"/>
<trip type="noVar" depart="80" id="UD2flow.8" from="inU2a" to="outD2"/>
<trip type="noVar" depart="81" id="LUflow.1" from="inL" to="outR2"/>
<trip type="noVar" depart="84" id="RLflow.21" from="inR" to="outL"/>
<trip type="noVar" depart="88" id="RLflow.22" from="inR" to="outL"/>
<trip type="noVar" depart="90" id="UD1flow.9" from="inU1" to="outD1"/>
<trip type="noVar" depart="90" id="UD2flow.9" from="inU2a" to="outD2"/>
<trip type="noVar" depart="92" id="RLflow.23" from="inR" to="outL"/>
<trip type="noVar" depart="96" id="RLflow.24" from="inR" to="outL"/>
<trip type="noVar" depart="100" id="RLflow.25" from="inR" to="outL"/>
<trip type="noVar" depart="100" id="UD1flow.10" from="inU1" to="outD1"/>
<trip type="noVar" depart="100" id="UD2flow.10" from="inU2a" to="outD2"/>
<trip type="noVar" depart="104" id="RLflow.26" from="inR" to="outL"/>
<trip type="noVar" depart="108" id="RLflow.27" from="inR" to="outL"/>
<trip type="noVar" depart="110" id="UD1flow.11" from="inU1" to="outD1"/>
<trip type="noVar" depart="110" id="UD2flow.11" from="inU2a" to="outD2"/>
<trip type="noVar" depart="112" id="RLflow.28" from="inR" to="outL"/>
<trip type="noVar" depart="116" id="RLflow.29" from="inR" to="outL"/>
<trip type="noVar" depart="120" id="RLflow.30" from="inR" to="outL"/>
<trip type="noVar" depart="120" id="UD1flow.12" from="inU1" to="outD1"/>
<trip type="noVar" depart="120" id="UD2flow.12" from="inU2a" to="outD2"/>
<trip type="noVar" depart="124" id="RLflow.31" from="inR" to="outL"/>
<trip type="noVar" depart="128" id="RLflow.32" from="inR" to="outL"/>
<trip type="noVar" depart="130" id="UD1flow.13" from="inU1" to="outD1"/>
<trip type="noVar" depart="130" id="UD2flow.13" from="inU2a" to="outD2"/>
<trip type="noVar" depart="132" id="RLflow.33" from="inR" to="outL"/>
<trip type="noVar" depart="136" id="RLflow.34" from="inR" to="outL"/>
<trip type="noVar" depart="140" id="RLflow.35" from="inR" to="outL"/>
<trip type="noVar" depart="140" id="UD1flow.14" from="inU1" to="outD1"/>
<trip type="noVar" depart="140" id="UD2flow.14" from="inU2a" to="outD2"/>
<trip type="noVar" depart="144" id="RLflow.36" from="inR" to="outL"/>
<trip type="noVar" depart="148" id="RLflow.37" from="inR" to="outL"/>
<trip type="noVar" depart="150" id="UD1flow.15" from="inU1" to="outD1"/>
<trip type="noVar" depart="150" id="UD2flow.15" from="inU2a" to="outD2"/>
<trip type="noVar" depart="152" id="RLflow.38" from="inR" to="outL"/>
<trip type="noVar" depart="156" id="RLflow.39" from="inR" to="outL"/>
<trip type="noVar" depart="160" id="RLflow.40" from="inR" to="outL"/>
<trip type="noVar" depart="160" id="UD1flow.16" from="inU1" to="outD1"/>
<trip type="noVar" depart="160" id="UD2flow.16" from="inU2a" to="outD2"/>
<trip type="noVar" depart="163" id="LUflow.2" from="inL" to="outR2"/>
<trip type="noVar" depart="164" id="RLflow.41" from="inR" to="outL"/>
<trip type="noVar" depart="168" id="RLflow.42" from="inR" to="outL"/>
<trip type="noVar" depart="170" id="UD1flow.17" from="inU1" to="outD1"/>
<trip type="noVar" depart="170" id="UD2flow.17" from="inU2a" to="outD2"/>
<trip type="noVar" depart="172" id="RLflow.43" from="inR" to="outL"/>
<trip type="noVar" depart="176" id="RLflow.44" from="inR" to="outL"/>
<trip type="noVar" depart="180" id="RLflow.45" from="inR" to="outL"/>
<trip type="noVar" depart="180" id="UD1flow.18" from="inU1" to="outD1"/>
<trip type="noVar" depart="180" id="UD2flow.18" from="inU2a" to="outD2"/>
<trip type="noVar" depart="184" id="RLflow.46" from="inR" to="outL"/>
<trip type="noVar" depart="188" id="RLflow.47" from="inR" to="outL"/>
<trip type="noVar" depart="190" id="UD1flow.19" from="inU1" to="outD1"/>
<trip type="noVar" depart="190" id="UD2flow.19" from="inU2a" to="outD2"/>
<trip type="noVar" depart="192" id="RLflow.48" from="inR" to="outL"/>
<trip type="noVar" depart="196" id="RLflow.49" from="inR" to="outL"/>
<trip type="noVar" depart="200" id="RLflow.50" from="inR" to="outL"/>
<trip type="noVar" depart="200" id="UD1flow.20" from="inU1" to="outD1"/>
<trip type="noVar" depart="200" id="UD2flow.20" from="inU2a" to="outD2"/>
<trip type="noVar" depart="204" id="RLflow.51" from="inR" to="outL"/>
<trip type="noVar" depart="208" id="RLflow.52" from="inR" to="outL"/>
<trip type="noVar" depart="210" id="UD1flow.21" from="inU1" to="outD1"/>
<trip type="noVar" depart="210" id="UD2flow.21" from="inU2a" to="outD2"/>
<trip type="noVar" depart="212" id="RLflow.53" from="inR" to="outL"/>
<trip type="noVar" depart="216" id="RLflow.54" from="inR" to="outL"/>
<trip type="noVar" depart="220" id="RLflow.55" from="inR" to="outL"/>
<trip type="noVar" depart="220" id="UD1flow.22" from="inU1" to="outD1"/>
<trip type="noVar" depart="220" id="UD2flow.22" from="inU2a" to="outD2"/>
<trip type="noVar" depart="224" id="RLflow.56" from="inR" to="outL"/>
<trip type="noVar" depart="228" id="RLflow.57" from="inR" to="outL"/>
<trip type="noVar" depart="230" id="UD1flow.23" from="inU1" to="outD1"/>
<trip type="noVar" depart="230" id="UD2flow.23" from="inU2a" to="outD2"/>
<trip type="noVar" depart="232" id="RLflow.58" from="inR" to="outL"/>
<trip type="noVar" depart="236" id="RLflow.59" from="inR" to="outL"/>
<trip type="noVar" depart="240" id="RLflow.60" from="inR" to="outL"/>
<trip type="noVar" depart="240" id="UD1flow.24" from="inU1" to="outD1"/>
<trip type="noVar" depart="240" id="UD2flow.24" from="inU2a" to="outD2"/>
<trip type="noVar" depart="244" id="RLflow.61" from="inR" to="outL"/>
<trip type="noVar" depart="244" id="LUflow.3" from="inL" to="outR2"/>
<trip type="noVar" depart="248" id="RLflow.62" from="inR" to="outL"/>
<trip type="noVar" depart="250" id="UD1flow.25" from="inU1" to="outD1"/>
<trip type="noVar" depart="250" id="UD2flow.25" from="inU2a" to="outD2"/>
<trip type="noVar" depart="252" id="RLflow.63" from="inR" to="outL"/>
<trip type="noVar" depart="256" id="RLflow.64" from="inR" to="outL"/>
<trip type="noVar" depart="260" id="RLflow.65" from="inR" to="outL"/>
<trip type="noVar" depart="260" id="UD1flow.26" from="inU1" to="outD1"/>
<trip type="noVar" depart="260" id="UD2flow.26" from="inU2a" to="outD2"/>
<trip type="noVar" depart="264" id="RLflow.66" from="inR" to="outL"/>
<trip type="noVar" depart="268" id="RLflow.67" from="inR" to="outL"/>
<trip type="noVar" depart="270" id="UD1flow.27" from="inU1" to="outD1"/>
<trip type="noVar" depart="270" id="UD2flow.27" from="inU2a" to="outD2"/>
<trip type="noVar" depart="272" id="RLflow.68" from="inR" to="outL"/>
<trip type="noVar" depart="276" id="RLflow.69" from="inR" to="outL"/>
<trip type="noVar" depart="280" id="RLflow.70" from="inR" to="outL"/>
<trip type="noVar" depart="280" id="UD1flow.28" from="inU1" to="outD1"/>
<trip type="noVar" depart="280" id="UD2flow.28" from="inU2a" to="outD2"/>
<trip type="noVar" depart="284" id="RLflow.71" from="inR" to="outL"/>
<trip type="noVar" depart="288" id="RLflow.72" from="inR" to="outL"/>
<trip type="noVar" depart="290" id="UD1flow.29" from="inU1" to="outD1"/>
<trip type="noVar" depart="290" id="UD2flow.29" from="inU2a" to="outD2"/>
<trip type="noVar" depart="292" id="RLflow.73" from="inR" to="outL"/>
<trip type="noVar" depart="296" id="RLflow.74" from="inR" to="outL"/>
<trip type="noVar" depart="300" id="RLflow.75" from="inR" to="outL"/>
<trip type="noVar" depart="300" id="UD1flow.30" from="inU1" to="outD1"/>
<trip type="noVar" depart="300" id="UD2flow.30" from="inU2a" to="outD2"/>
<trip type="noVar" depart="304" id="RLflow.76" from="inR" to="outL"/>
<trip type="noVar" depart="308" id="RLflow.77" from="inR" to="outL"/>
<trip type="noVar" depart="310" id="UD1flow.31" from="inU1" to="outD1"/>
<trip type="noVar" depart="310" id="UD2flow.31" from="inU2a" to="outD2"/>
<trip type="noVar" depart="312" id="RLflow.78" from="inR" to="outL"/>
<trip type="noVar" depart="316" id="RLflow.79" from="inR" to="outL"/>
<trip type="noVar" depart="320" id="RLflow.80" from="inR" to="outL"/>
<trip type="noVar" depart="320" id="UD1flow.32" from="inU1" to="outD1"/>
<trip type="noVar" depart="320" id="UD2flow.32" from="inU2a" to="outD2"/>
<trip type="noVar" depart="324" id="RLflow.81" from="inR" to="outL"/>
<trip type="noVar" depart="326" id="LUflow.4" from="inL" to="outR2"/>
<trip type="noVar" depart="328" id="RLflow.82" from="inR" to="outL"/>
<trip type="noVar" depart="330" id="UD1flow.33" from="inU1" to="outD1"/>
<trip type="noVar" depart="330" id="UD2flow.33" from="inU2a" to="outD2"/>
<trip type="noVar" depart="332" id="RLflow.83" from="inR" to="outL"/>
<trip type="noVar" depart="336" id="RLflow.84" from="inR" to="outL"/>
<trip type="noVar" depart="340" id="RLflow.85" from="inR" to="outL"/>
<trip type="noVar" depart="340" id="UD1flow.34" from="inU1" to="outD1"/>
<trip type="noVar" depart="340" id="UD2flow.34" from="inU2a" to="outD2"/>
<trip type="noVar" depart="344" id="RLflow.86" from="inR" to="outL"/>
<trip type="noVar" depart="348" id="RLflow.87" from="inR" to="outL"/>
<trip type="noVar" depart="350" id="UD1flow.35" from="inU1" to="outD1"/>
<trip type="noVar" depart="350" id="UD2flow.35" from="inU2a" to="outD2"/>
<trip type="noVar" depart="352" id="RLflow.88" from="inR" to="outL"/>
<trip type="noVar" depart="356" id="RLflow.89" from="inR" to="outL"/>
<trip type="noVar" depart="360" id="RLflow.90" from="inR" to="outL"/>
<trip type="noVar" depart="360" id="UD1flow.36" from="inU1" to="outD1"/>
<trip type="noVar" depart="360" id="UD2flow.36" from="inU2a" to="outD2"/>
<trip type="noVar" depart="364" id="RLflow.91" from="inR" to="outL"/>
<trip type="noVar" depart="368" id="RLflow.92" from="inR" to="outL"/>
<trip type="noVar" depart="370" id="UD1flow.37" from="inU1" to="outD1"/>
<trip type="noVar" depart="370" id="UD2flow.37" from="inU2a" to="outD2"/>
<trip type="noVar" depart="372" id="RLflow.93" from="inR" to="outL"/>
<trip type="noVar" depart="376" id="RLflow.94" from="inR" to="outL"/>
<trip type="noVar" depart="380" id="RLflow.95" from="inR" to="outL"/>
<trip type="noVar" depart="380" id="UD1flow.38" from="inU1" to="outD1"/>
<trip type="noVar" depart="380" id="UD2flow.38" from="inU2a" to="outD2"/>
<trip type="noVar" depart="384" id="RLflow.96" from="inR" to="outL"/>
<trip type="noVar" depart="388" id="RLflow.97" from="inR" to="outL"/>
<trip type="noVar" depart="390" id="UD1flow.39" from="inU1" to="outD1"/>
<trip type="noVar" depart="390" id="UD2flow.39" from="inU2a" to="outD2"/>
<trip type="noVar" depart="392" id="RLflow.98" from="inR" to="outL"/>
<trip type="noVar" depart="396" id="RLflow.99" from="inR" to="outL"/>
<trip type="noVar" depart="400" id="RLflow.100" from="inR" to="outL"/>
<trip type="noVar" depart="401" id="UD1flow.40" from="inU1" to="outD1"/>
<trip type="noVar" depart="401" id="UD2flow.40" from="inU2a" to="outD2"/>
<trip type="noVar" depart="404" id="RLflow.101" from="inR" to="outL"/>
<trip type="noVar" depart="408" id="LUflow.5" from="inL" to="outR2"/>
<trip type="noVar" depart="408" id="RLflow.102" from="inR" to="outL"/>
<trip type="noVar" depart="411" id="UD1flow.41" from="inU1" to="outD1"/>
<trip type="noVar" depart="411" id="UD2flow.41" from="inU2a" to="outD2"/>
<trip type="noVar" depart="412" id="RLflow.103" from="inR" to="outL"/>
<trip type="noVar" depart="416" id="RLflow.104" from="inR" to="outL"/>
<trip type="noVar" depart="420" id="RLflow.105" from="inR" to="outL"/>
<trip type="noVar" depart="421" id="UD1flow.42" from="inU1" to="outD1"/>
<trip type="noVar" depart="421" id="UD2flow.42" from="inU2a" to="outD2"/>
<trip type="noVar" depart="424" id="RLflow.106" from="inR" to="outL"/>
<trip type="noVar" depart="428" id="RLflow.107" from="inR" to="outL"/>
<trip type="noVar" depart="431" id="UD1flow.43" from="inU1" to="outD1"/>
<trip type="noVar" depart="431" id="UD2flow.43" from="inU2a" to="outD2"/>
<trip type="noVar" depart="432" id="RLflow.108" from="inR" to="outL"/>
<trip type="noVar" depart="436" id="RLflow.109" from="inR" to="outL"/>
<trip type="noVar" depart="440" id="RLflow.110" from="inR" to="outL"/>
<trip type="noVar" depart="441" id="UD1flow.44" from="inU1" to="outD1"/>
<trip type="noVar" depart="441" id="UD2flow.44" from="inU2a" to="outD2"/>
<trip type="noVar" depart="444" id="RLflow.111" from="inR" to="outL"/>
<trip type="noVar" depart="448" id="RLflow.112" from="inR" to="outL"/>
<trip type="noVar" depart="451" id="UD1flow.45" from="inU1" to="outD1"/>
<trip type="noVar" depart="451" id="UD2flow.45" from="inU2a" to="outD2"/>
<trip type="noVar" depart="452" id="RLflow.113" from="inR" to="outL"/>
<trip type="noVar" depart="456" id="RLflow.114" from="inR" to="outL"/>
<trip type="noVar" depart="460" id="RLflow.115" from="inR" to="outL"/>
<trip type="noVar" depart="461" id="UD1flow.46" from="inU1" to="outD1"/>
<trip type="noVar" depart="461" id="UD2flow.46" from="inU2a" to="outD2"/>
<trip type="noVar" depart="464" id="RLflow.116" from="inR" to="outL"/>
<trip type="noVar" depart="468" id="RLflow.117" from="inR" to="outL"/>
<trip type="noVar" depart="471" id="UD1flow.47" from="inU1" to="outD1"/>
<trip type="noVar" depart="471" id="UD2flow.47" from="inU2a" to="outD2"/>
<trip type="noVar" depart="472" id="RLflow.118" from="inR" to="outL"/>
<trip type="noVar" depart="476" id="RLflow.119" from="inR" to="outL"/>
<trip type="noVar" depart="480" id="RLflow.120" from="inR" to="outL"/>
<trip type="noVar" depart="481" id="UD1flow.48" from="inU1" to="outD1"/>
<trip type="noVar" depart="481" id="UD2flow.48" from="inU2a" to="outD2"/>
<trip type="noVar" depart="484" id="RLflow.121" from="inR" to="outL"/>
<trip type="noVar" depart="488" id="RLflow.122" from="inR" to="outL"/>
<trip type="noVar" depart="489" id="LUflow.6" from="inL" to="outR2"/>
<trip type="noVar" depart="491" id="UD1flow.49" from="inU1" to="outD1"/>
<trip type="noVar" depart="491" id="UD2flow.49" from="inU2a" to="outD2"/>
<trip type="noVar" depart="492" id="RLflow.123" from="inR" to="outL"/>
<trip type="noVar" depart="496" id="RLflow.124" from="inR" to="outL"/>
<trip type="noVar" depart="500" id="RLflow.125" from="inR" to="outL"/>
<trip type="noVar" depart="501" id="UD1flow.50" from="inU1" to="outD1"/>
<trip type="noVar" depart="501" id="UD2flow.50" from="inU2a" to="outD2"/>
<trip type="noVar" depart="504" id="RLflow.126" from="inR" to="outL"/>
<trip type="noVar" depart="508" id="RLflow.127" from="inR" to="outL"/>
<trip type="noVar" depart="511" id="UD1flow.51" from="inU1" to="outD1"/>
<trip type="noVar" depart="511" id="UD2flow.51" from="inU2a" to="outD2"/>
<trip type="noVar" depart="512" id="RLflow.128" from="inR" to="outL"/>
<trip type="noVar" depart="516" id="RLflow.129" from="inR" to="outL"/>
<trip type="noVar" depart="520" id="RLflow.130" from="inR" to="outL"/>
<trip type="noVar" depart="521" id="UD1flow.52" from="inU1" to="outD1"/>
<trip type="noVar" depart="521" id="UD2flow.52" from="inU2a" to="outD2"/>
<trip type="noVar" depart="524" id="RLflow.131" from="inR" to="outL"/>
<trip type="noVar" depart="528" id="RLflow.132" from="inR" to="outL"/>
<trip type="noVar" depart="531" id="UD1flow.53" from="inU1" to="outD1"/>
<trip type="noVar" depart="531" id="UD2flow.53" from="inU2a" to="outD2"/>
<trip type="noVar" depart="532" id="RLflow.133" from="inR" to="outL"/>
<trip type="noVar" depart="536" id="RLflow.134" from="inR" to="outL"/>
<trip type="noVar" depart="540" id="RLflow.135" from="inR" to="outL"/>
<trip type="noVar" depart="541" id="UD1flow.54" from="inU1" to="outD1"/>
<trip type="noVar" depart="541" id="UD2flow.54" from="inU2a" to="outD2"/>
<trip type="noVar" depart="544" id="RLflow.136" from="inR" to="outL"/>
<trip type="noVar" depart="548" id="RLflow.137" from="inR" to="outL"/>
<trip type="noVar" depart="551" id="UD1flow.55" from="inU1" to="outD1"/>
<trip type="noVar" depart="551" id="UD2flow.55" from="inU2a" to="outD2"/>
<trip type="noVar" depart="552" id="RLflow.138" from="inR" to="outL"/>
<trip type="noVar" depart="556" id="RLflow.139" from="inR" to="outL"/>
<trip type="noVar" depart="560" id="RLflow.140" from="inR" to="outL"/>
<trip type="noVar" depart="561" id="UD1flow.56" from="inU1" to="outD1"/>
<trip type="noVar" depart="561" id="UD2flow.56" from="inU2a" to="outD2"/>
<trip type="noVar" depart="564" id="RLflow.141" from="inR" to="outL"/>
<trip type="noVar" depart="568" id="RLflow.142" from="inR" to="outL"/>
<trip type="noVar" depart="571" id="LUflow.7" from="inL" to="outR2"/>
<trip type="noVar" depart="571" id="UD1flow.57" from="inU1" to="outD1"/>
<trip type="noVar" depart="571" id="UD2flow.57" from="inU2a" to="outD2"/>
<trip type="noVar" depart="572" id="RLflow.143" from="inR" to="outL"/>
<trip type="noVar" depart="576" id="RLflow.144" from="inR" to="outL"/>
<trip type="noVar" depart="580" id="RLflow.145" from="inR" to="outL"/>
<trip type="noVar" depart="581" id="UD1flow.58" from="inU1" to="outD1"/>
<trip type="noVar" depart="581" id="UD2flow.58" from="inU2a" to="outD2"/>
<trip type="noVar" depart="584" id="RLflow.146" from="inR" to="outL"/>
<trip type="noVar" depart="588" id="RLflow.147" from="inR" to="outL"/>
<trip type="noVar" depart="591" id="UD1flow.59" from="inU1" to="outD1"/>
<trip type="noVar" depart="591" id="UD2flow.59" from="inU2a" to="outD2"/>
<trip type="noVar" depart="592" id="RLflow.148" from="inR" to="outL"/>
<trip type="noVar" depart="596" id="RLflow.149" from="inR" to="outL"/>
<trip type="noVar" depart="600" id="RLflow.150" from="inR" to="outL"/>
<trip type="noVar" depart="601" id="UD1flow.60" from="inU1" to="outD1"/>
<trip type="noVar" depart="601" id="UD2flow.60" from="inU2a" to="outD2"/>
<trip type="noVar" depart="604" id="RLflow.151" from="inR" to="outL"/>
<trip type="noVar" depart="608" id="RLflow.152" from="inR" to="outL"/>
<trip type="noVar" depart="611" id="UD1flow.61" from="inU1" to="outD1"/>
<trip type="noVar" depart="611" id="UD2flow.61" from="inU2a" to="outD2"/>
<trip type="noVar" depart="612" id="RLflow.153" from="inR" to="outL"/>
<trip type="noVar" depart="616" id="RLflow.154" from="inR" to="outL"/>
<trip type="noVar" depart="620" id="RLflow.155" from="inR" to="outL"/>
<trip type="noVar" depart="621" id="UD1flow.62" from="inU1" to="outD1"/>
<trip type="noVar" depart="621" id="UD2flow.62" from="inU2a" to="outD2"/>
<trip type="noVar" depart="624" id="RLflow.156" from="inR" to="outL"/>
<trip type="noVar" depart="628" id="RLflow.157" from="inR" to="outL"/>
<trip type="noVar" depart="631" id="UD1flow.63" from="inU1" to="outD1"/>
<trip type="noVar" depart="631" id="UD2flow.63" from="inU2a" to="outD2"/>
<trip type="noVar" depart="632" id="RLflow.158" from="inR" to="outL"/>
<trip type="noVar" depart="636" id="RLflow.159" from="inR" to="outL"/>
<trip type="noVar" depart="640" id="RLflow.160" from="inR" to="outL"/>
<trip type="noVar" depart="641" id="UD1flow.64" from="inU1" to="outD1"/>
<trip type="noVar" depart="641" id="UD2flow.64" from="inU2a" to="outD2"/>
<trip type="noVar" depart="644" id="RLflow.161" from="inR" to="outL"/>
<trip type="noVar" depart="648" id="RLflow.162" from="inR" to="outL"/>
<trip type="noVar" depart="651" id="UD1flow.65" from="inU1" to="outD1"/>
<trip type="noVar" depart="651" id="UD2flow.65" from="inU2a" to="outD2"/>
<trip type="noVar" depart="652" id="RLflow.163" from="inR" to="outL"/>
<trip type="noVar" depart="653" id="LUflow.8" from="inL" to="outR2"/>
<trip type="noVar" depart="656" id="RLflow.164" from="inR" to="outL"/>
<trip type="noVar" depart="660" id="RLflow.165" from="inR" to="outL"/>
<trip type="noVar" depart="661" id="UD1flow.66" from="inU1" to="outD1"/>
<trip type="noVar" depart="661" id="UD2flow.66" from="inU2a" to="outD2"/>
<trip type="noVar" depart="664" id="RLflow.166" from="inR" to="outL"/>
<trip type="noVar" depart="668" id="RLflow.167" from="inR" to="outL"/>
<trip type="noVar" depart="671" id="UD1flow.67" from="inU1" to="outD1"/>
<trip type="noVar" depart="671" id="UD2flow.67" from="inU2a" to="outD2"/>
<trip type="noVar" depart="672" id="RLflow.168" from="inR" to="outL"/>
<trip type="noVar" depart="676" id="RLflow.169" from="inR" to="outL"/>
<trip type="noVar" depart="680" id="RLflow.170" from="inR" to="outL"/>
<trip type="noVar" depart="681" id="UD1flow.68" from="inU1" to="outD1"/>
<trip type="noVar" depart="681" id="UD2flow.68" from="inU2a" to="outD2"/>
<trip type="noVar" depart="684" id="RLflow.171" from="inR" to="outL"/>
<trip type="noVar" depart="688" id="RLflow.172" from="inR" to="outL"/>
<trip type="noVar" depart="691" id="UD1flow.69" from="inU1" to="outD1"/>
<trip type="noVar" depart="691" id="UD2flow.69" from="inU2a" to="outD2"/>
<trip type="noVar" depart="692" id="RLflow.173" from="inR" to="outL"/>
<trip type="noVar" depart="696" id="RLflow.174" from="inR" to="outL"/>
<trip type="noVar" depart="700" id="RLflow.175" from="inR" to="outL"/>
<trip type="noVar" depart="701" id="UD1flow.70" from="inU1" to="outD1"/>
<trip type="noVar" depart="701" id="UD2flow.70" from="inU2a" to="outD2"/>
<trip type="noVar" depart="704" id="RLflow.176" from="inR" to="outL"/>
<trip type="noVar" depart="708" id="RLflow.177" from="inR" to="outL"/>
<trip type="noVar" depart="711" id="UD1flow.71" from="inU1" to="outD1"/>
<trip type="noVar" depart="711" id="UD2flow.71" from="inU2a" to="outD2"/>
<trip type="noVar" depart="712" id="RLflow.178" from="inR" to="outL"/>
<trip type="noVar" depart="716" id="RLflow.179" from="inR" to="outL"/>
<trip type="noVar" depart="720" id="RLflow.180" from="inR" to="outL"/>
<trip type="noVar" depart="721" id="UD1flow.72" from="inU1" to="outD1"/>
<trip type="noVar" depart="721" id="UD2flow.72" from="inU2a" to="outD2"/>
<trip type="noVar" depart="724" id="RLflow.181" from="inR" to="outL"/>
<trip type="noVar" depart="728" id="RLflow.182" from="inR" to="outL"/>
<trip type="noVar" depart="731" id="UD1flow.73" from="inU1" to="outD1"/>
<trip type="noVar" depart="731" id="UD2flow.73" from="inU2a" to="outD2"/>
<trip type="noVar" depart="732" id="RLflow.183" from="inR" to="outL"/>
<trip type="noVar" depart="734" id="LUflow.9" from="inL" to="outR2"/>
<trip type="noVar" depart="736" id="RLflow.184" from="inR" to="outL"/>
<trip type="noVar" depart="740" id="RLflow.185" from="inR" to="outL"/>
<trip type="noVar" depart="741" id="UD1flow.74" from="inU1" to="outD1"/>
<trip type="noVar" depart="741" id="UD2flow.74" from="inU2a" to="outD2"/>
<trip type="noVar" depart="744" id="RLflow.186" from="inR" to="outL"/>
<trip type="noVar" depart="748" id="RLflow.187" from="inR" to="outL"/>
<trip type="noVar" depart="751" id="UD1flow.75" from="inU1" to="outD1"/>
<trip type="noVar" depart="751" id="UD2flow.75" from="inU2a" to="outD2"/>
<trip type="noVar" depart="752" id="RLflow.188" from="inR" to="outL"/>
<trip type="noVar" depart="756" id="RLflow.189" from="inR" to="outL"/>
<trip type="noVar" depart="760" id="RLflow.190" from="inR" to="outL"/>
<trip type="noVar" depart="761" id="UD1flow.76" from="inU1" to="outD1"/>
<trip type="noVar" depart="761" id="UD2flow.76" from="inU2a" to="outD2"/>
<trip type="noVar" depart="764" id="RLflow.191" from="inR" to="outL"/>
<trip type="noVar" depart="768" id="RLflow.192" from="inR" to="outL"/>
<trip type="noVar" depart="771" id="UD1flow.77" from="inU1" to="outD1"/>
<trip type="noVar" depart="771" id="UD2flow.77" from="inU2a" to="outD2"/>
<trip type="noVar" depart="772" id="RLflow.193" from="inR" to="outL"/>
<trip type="noVar" depart="776" id="RLflow.194" from="inR" to="outL"/>
<trip type="noVar" depart="780" id="RLflow.195" from="inR" to="outL"/>
<trip type="noVar" depart="781" id="UD1flow.78" from="inU1" to="outD1"/>
<trip type="noVar" depart="781" id="UD2flow.78" from="inU2a" to="outD2"/>
<trip type="noVar" depart="784" id="RLflow.196" from="inR" to="outL"/>
<trip type="noVar" depart="788" id="RLflow.197" from="inR" to="outL"/>
<trip type="noVar" depart="791" id="UD1flow.79" from="inU1" to="outD1"/>
<trip type="noVar" depart="791" id="UD2flow.79" from="inU2a" to="outD2"/>
<trip type="noVar" depart="792" id="RLflow.198" from="inR" to="outL"/>
<trip type="noVar" depart="796" id="RLflow.199" from="inR" to="outL"/>
<trip type="noVar" depart="800" id="RLflow.200" from="inR" to="outL"/>
<trip type="noVar" depart="802" id="UD1flow.80" from="inU1" to="outD1"/>
<trip type="noVar" depart="802" id="UD2flow.80" from="inU2a" to="outD2"/>
<trip type="noVar" depart="804" id="RLflow.201" from="inR" to="outL"/>
<trip type="noVar" depart="808" id="RLflow.202" from="inR" to="outL"/>
<trip type="noVar" depart="812" id="UD1flow.81" from="inU1" to="outD1"/>
<trip type="noVar" depart="812" id="UD2flow.81" from="inU2a" to="outD2"/>
<trip type="noVar" depart="812" id="RLflow.203" from="inR" to="outL"/>
<trip type="noVar" depart="816" id="LUflow.10" from="inL" to="outR2"/>
<trip type="noVar" depart="816" id="RLflow.204" from="inR" to="outL"/>
<trip type="noVar" depart="820" id="RLflow.205" from="inR" to="outL"/>
<trip type="noVar" depart="822" id="UD1flow.82" from="inU1" to="outD1"/>
<trip type="noVar" depart="822" id="UD2flow.82" from="inU2a" to="outD2"/>
<trip type="noVar" depart="824" id="RLflow.206" from="inR" to="outL"/>
<trip type="noVar" depart="828" id="RLflow.207" from="inR" to="outL"/>
<trip type="noVar" depart="832" id="UD1flow.83" from="inU1" to="outD1"/>
<trip type="noVar" depart="832" id="UD2flow.83" from="inU2a" to="outD2"/>
<trip type="noVar" depart="832" id="RLflow.208" from="inR" to="outL"/>
<trip type="noVar" depart="836" id="RLflow.209" from="inR" to="outL"/>
<trip type="noVar" depart="840" id="RLflow.210" from="inR" to="outL"/>
<trip type="noVar" depart="842" id="UD1flow.84" from="inU1" to="outD1"/>
<trip type="noVar" depart="842" id="UD2flow.84" from="inU2a" to="outD2"/>
<trip type="noVar" depart="844" id="RLflow.211" from="inR" to="outL"/>
<trip type="noVar" depart="848" id="RLflow.212" from="inR" to="outL"/>
<trip type="noVar" depart="852" id="UD1flow.85" from="inU1" to="outD1"/>
<trip type="noVar" depart="852" id="UD2flow.85" from="inU2a" to="outD2"/>
<trip type="noVar" depart="852" id="RLflow.213" from="inR" to="outL"/>
<trip type="noVar" depart="856" id="RLflow.214" from="inR" to="outL"/>
<trip type="noVar" depart="860" id="RLflow.215" from="inR" to="outL"/>
<trip type="noVar" depart="862" id="UD1flow.86" from="inU1" to="outD1"/>
<trip type="noVar" depart="862" id="UD2flow.86" from="inU2a" to="outD2"/>
<trip type="noVar" depart="864" id="RLflow.216" from="inR" to="outL"/>
<trip type="noVar" depart="868" id="RLflow.217" from="inR" to="outL"/>
<trip type="noVar" depart="872" id="UD1flow.87" from="inU1" to="outD1"/>
<trip type="noVar" depart="872" id="UD2flow.87" from="inU2a" to="outD2"/>
<trip type="noVar" depart="872" id="RLflow.218" from="inR" to="outL"/>
<trip type="noVar" depart="876" id="RLflow.219" from="inR" to="outL"/>
<trip type="noVar" depart="880" id="RLflow.220" from="inR" to="outL"/>
<trip type="noVar" depart="882" id="UD1flow.88" from="inU1" to="outD1"/>
<trip type="noVar" depart="882" id="UD2flow.88" from="inU2a" to="outD2"/>
<trip type="noVar" depart="884" id="RLflow.221" from="inR" to="outL"/>
<trip type="noVar" depart="888" id="RLflow.222" from="inR" to="outL"/>
<trip type="noVar" depart="892" id="UD1flow.89" from="inU1" to="outD1"/>
<trip type="noVar" depart="892" id="UD2flow.89" from="inU2a" to="outD2"/>
<trip type="noVar" depart="892" id="RLflow.223" from="inR" to="outL"/>