<?xml version="1.0" encoding="UTF-8"?>
<routes xmlns:xsi="http://www.w3.org/2001/XMLSchema-instance" xsi:noNamespaceSchemaLocation="http://sumo.dlr.de/xsd/routes_file.xsd">

<vType id="noVar" speedFactor="1.0" speedDev="0.0"/>
<trip type="noVar" depart="198" id="1.3" from="1" to="2" />
<trip type="noVar" depart="458" id="1.4" from="1" to="2" />
<trip type="noVar" depart="521" id="3.4" from="3" to="4" />
<trip type="noVar" depart="755" id="1.5" from="1" to="2" />
<trip type="noVar" depart="783" id="1.7" from="1" to="2" />
<trip type="noVar" depart="1087" id="1.8" from="1" to="2" />
<trip type="noVar" depart="1645" id="1.2" from="1" to="2" />
<trip type="noVar" depart="1868" id="3.0" from="3" to="4" />
<trip type="noVar" depart="2217" id="3.2" from="3" to="4" />
<trip type="noVar" depart="2480" id="3.1" from="3" to="4" />
<trip type="noVar" depart="2506" id="1.6" from="1" to="2" />
<trip type="noVar" depart="2845" id="1.9" from="1" to="2" />
<trip type="noVar" depart="3080" id="1.0" from="1" to="2" />
<trip type="noVar" depart="3288" id="3.3" from="3" to="4" />
<trip type="noVar" depart="3417" id="1.1" from="1" to="2" />
</routes>
