<?xml version="1.0" encoding="UTF-8"?>
<routes xmlns:xsi="http://www.w3.org/2001/XMLSchema-instance" xsi:noNamespaceSchemaLocation="http://sumo.dlr.de/xsd/routes_file.xsd">

<vType id="noVar" speedFactor="1.0" speedDev="0.0"/>
<trip type="noVar" depart="0" id="RLflow.0" from="inR" to="outL"/>
<trip type="noVar" depart="0" id="LUflow.0" from="inL" to="outU"/>
<trip type="noVar" depart="4" id="RLflow.1" from="inR" to="outL"/>
<trip type="noVar" depart="8" id="RLflow.2" from="inR" to="outL"/>
<trip type="noVar" depart="12" id="RLflow.3" from="inR" to="outL"/>
<trip type="noVar" depart="16" id="RLflow.4" from="inR" to="outL"/>
<trip type="noVar" depart="20" id="RLflow.5" from="inR" to="outL"/>
<trip type="noVar" depart="24" id="RLflow.6" from="inR" to="outL"/>
<trip type="noVar" depart="28" id="RLflow.7" from="inR" to="outL"/>
<trip type="noVar" depart="32" id="RLflow.8" from="inR" to="outL"/>
<trip type="noVar" depart="36" id="RLflow.9" from="inR" to="outL"/>
<trip type="noVar" depart="40" id="RLflow.10" from="inR" to="outL"/>
<trip type="noVar" depart="44" id="RLflow.11" from="inR" to="outL"/>
<trip type="noVar" depart="48" id="RLflow.12" from="inR" to="outL"/>
<trip type="noVar" depart="52" id="RLflow.13" from="inR" to="outL"/>
<trip type="noVar" depart="56" id="RLflow.14" from="inR" to="outL"/>
<trip type="noVar" depart="60" id="RLflow.15" from="inR" to="outL"/>
<trip type="noVar" depart="64" id="RLflow.16" from="inR" to="outL"/>
<trip type="noVar" depart="68" id="RLflow.17" from="inR" to="outL"/>
<trip type="noVar" depart="72" id="RLflow.18" from="inR" to="outL"/>
<trip type="noVar" depart="76" id="RLflow.19" from="inR" to="outL"/>
<trip type="noVar" depart="80" id="RLflow.20" from="inR" to="outL"/>
<trip type="noVar" depart="81" id="LUflow.1" from="inL" to="outU"/>
<trip type="noVar" depart="84" id="RLflow.21" from="inR" to="outL"/>
<trip type="noVar" depart="88" id="RLflow.22" from="inR" to="outL"/>
<trip type="noVar" depart="92" id="RLflow.23" from="inR" to="outL"/>
<trip type="noVar" depart="96" id="RLflow.24" from="inR" to="outL"/>
<trip type="noVar" depart="100" id="RLflow.25" from="inR" to="outL"/>
<trip type="noVar" depart="104" id="RLflow.26" from="inR" to="outL"/>
<trip type="noVar" depart="108" id="RLflow.27" from="inR" to="outL"/>
<trip type="noVar" depart="112" id="RLflow.28" from="inR" to="outL"/>
<trip type="noVar" depart="116" id="RLflow.29" from="inR" to="outL"/>
<trip type="noVar" depart="120" id="RLflow.30" from="inR" to="outL"/>
<trip type="noVar" depart="124" id="RLflow.31" from="inR" to="outL"/>
<trip type="noVar" depart="128" id="RLflow.32" from="inR" to="outL"/>
<trip type="noVar" depart="132" id="RLflow.33" from="inR" to="outL"/>
<trip type="noVar" depart="136" id="RLflow.34" from="inR" to="outL"/>
<trip type="noVar" depart="140" id="RLflow.35" from="inR" to="outL"/>
<trip type="noVar" depart="144" id="RLflow.36" from="inR" to="outL"/>
<trip type="noVar" depart="148" id="RLflow.37" from="inR" to="outL"/>
<trip type="noVar" depart="152" id="RLflow.38" from="inR" to="outL"/>
<trip type="noVar" depart="156" id="RLflow.39" from="inR" to="outL"/>
<trip type="noVar" depart="160" id="RLflow.40" from="inR" to="outL"/>
<trip type="noVar" depart="163" id="LUflow.2" from="inL" to="outU"/>
<trip type="noVar" depart="164" id="RLflow.41" from="inR" to="outL"/>
<trip type="noVar" depart="168" id="RLflow.42" from="inR" to="outL"/>
<trip type="noVar" depart="172" id="RLflow.43" from="inR" to="outL"/>
<trip type="noVar" depart="176" id="RLflow.44" from="inR" to="outL"/>
<trip type="noVar" depart="180" id="RLflow.45" from="inR" to="outL"/>
<trip type="noVar" depart="184" id="RLflow.46" from="inR" to="outL"/>
<trip type="noVar" depart="188" id="RLflow.47" from="inR" to="outL"/>
<trip type="noVar" depart="192" id="RLflow.48" from="inR" to="outL"/>
<trip type="noVar" depart="196" id="RLflow.49" from="inR" to="outL"/>
<trip type="noVar" depart="200" id="RLflow.50" from="inR" to="outL"/>
<trip type="noVar" depart="204" id="RLflow.51" from="inR" to="outL"/>
<trip type="noVar" depart="208" id="RLflow.52" from="inR" to="outL"/>
<trip type="noVar" depart="212" id="RLflow.53" from="inR" to="outL"/>
<trip type="noVar" depart="216" id="RLflow.54" from="inR" to="outL"/>
<trip type="noVar" depart="220" id="RLflow.55" from="inR" to="outL"/>
<trip type="noVar" depart="224" id="RLflow.56" from="inR" to="outL"/>
<trip type="noVar" depart="228" id="RLflow.57" from="inR" to="outL"/>
<trip type="noVar" depart="232" id="RLflow.58" from="inR" to="outL"/>
<trip type="noVar" depart="236" id="RLflow.59" from="inR" to="outL"/>
<trip type="noVar" depart="240" id="RLflow.60" from="inR" to="outL"/>
<trip type="noVar" depart="244" id="RLflow.61" from="inR" to="outL"/>
<trip type="noVar" depart="244" id="LUflow.3" from="inL" to="outU"/>
<trip type="noVar" depart="248" id="RLflow.62" from="inR" to="outL"/>
<trip type="noVar" depart="252" id="RLflow.63" from="inR" to="outL"/>
<trip type="noVar" depart="256" id="RLflow.64" from="inR" to="outL"/>
<trip type="noVar" depart="260" id="RLflow.65" from="inR" to="outL"/>
<trip type="noVar" depart="264" id="RLflow.66" from="inR" to="outL"/>
<trip type="noVar" depart="268" id="RLflow.67" from="inR" to="outL"/>
<trip type="noVar" depart="272" id="RLflow.68" from="inR" to="outL"/>
<trip type="noVar" depart="276" id="RLflow.69" from="inR" to="outL"/>
<trip type="noVar" depart="280" id="RLflow.70" from="inR" to="outL"/>
<trip type="noVar" depart="284" id="RLflow.71" from="inR" to="outL"/>
<trip type="noVar" depart="288" id="RLflow.72" from="inR" to="outL"/>
<trip type="noVar" depart="292" id="RLflow.73" from="inR" to="outL"/>
<trip type="noVar" depart="296" id="RLflow.74" from="inR" to="outL"/>
<trip type="noVar" depart="300" id="RLflow.75" from="inR" to="outL"/>
<trip type="noVar" depart="304" id="RLflow.76" from="inR" to="outL"/>
<trip type="noVar" depart="308" id="RLflow.77" from="inR" to="outL"/>
<trip type="noVar" depart="312" id="RLflow.78" from="inR" to="outL"/>
<trip type="noVar" depart="316" id="RLflow.79" from="inR" to="outL"/>
<trip type="noVar" depart="320" id="RLflow.80" from="inR" to="outL"/>
<trip type="noVar" depart="324" id="RLflow.81" from="inR" to="outL"/>
<trip type="noVar" depart="326" id="LUflow.4" from="inL" to="outU"/>
<trip type="noVar" depart="328" id="RLflow.82" from="inR" to="outL"/>
<trip type="noVar" depart="332" id="RLflow.83" from="inR" to="outL"/>
<trip type="noVar" depart="336" id="RLflow.84" from="inR" to="outL"/>
<trip type="noVar" depart="340" id="RLflow.85" from="inR" to="outL"/>
<trip type="noVar" depart="344" id="RLflow.86" from="inR" to="outL"/>
<trip type="noVar" depart="348" id="RLflow.87" from="inR" to="outL"/>
<trip type="noVar" depart="352" id="RLflow.88" from="inR" to="outL"/>
<trip type="noVar" depart="356" id="RLflow.89" from="inR" to="outL"/>
<trip type="noVar" depart="360" id="RLflow.90" from="inR" to="outL"/>
<trip type="noVar" depart="364" id="RLflow.91" from="inR" to="outL"/>
<trip type="noVar" depart="368" id="RLflow.92" from="inR" to="outL"/>
<trip type="noVar" depart="372" id="RLflow.93" from="inR" to="outL"/>
<trip type="noVar" depart="376" id="RLflow.94" from="inR" to="outL"/>
<trip type="noVar" depart="380" id="RLflow.95" from="inR" to="outL"/>
<trip type="noVar" depart="384" id="RLflow.96" from="inR" to="outL"/>
<trip type="noVar" depart="388" id="RLflow.97" from="inR" to="outL"/>
<trip type="noVar" depart="392" id="RLflow.98" from="inR" to="outL"/>
<trip type="noVar" depart="396" id="RLflow.99" from="inR" to="outL"/>
<trip type="noVar" depart="400" id="RLflow.100" from="inR" to="outL"/>
<trip type="noVar" depart="404" id="RLflow.101" from="inR" to="outL"/>
<trip type="noVar" depart="408" id="LUflow.5" from="inL" to="outU"/>
<trip type="noVar" depart="408" id="RLflow.102" from="inR" to="outL"/>
<trip type="noVar" depart="412" id="RLflow.103" from="inR" to="outL"/>
<trip type="noVar" depart="416" id="RLflow.104" from="inR" to="outL"/>
<trip type="noVar" depart="420" id="RLflow.105" from="inR" to="outL"/>
<trip type="noVar" depart="424" id="RLflow.106" from="inR" to="outL"/>
<trip type="noVar" depart="428" id="RLflow.107" from="inR" to="outL"/>
<trip type="noVar" depart="432" id="RLflow.108" from="inR" to="outL"/>
<trip type="noVar" depart="436" id="RLflow.109" from="inR" to="outL"/>
<trip type="noVar" depart="440" id="RLflow.110" from="inR" to="outL"/>
<trip type="noVar" depart="444" id="RLflow.111" from="inR" to="outL"/>
<trip type="noVar" depart="448" id="RLflow.112" from="inR" to="outL"/>
<trip type="noVar" depart="452" id="RLflow.113" from="inR" to="outL"/>
<trip type="noVar" depart="456" id="RLflow.114" from="inR" to="outL"/>
<trip type="noVar" depart="460" id="RLflow.115" from="inR" to="outL"/>
<trip type="noVar" depart="464" id="RLflow.116" from="inR" to="outL"/>
<trip type="noVar" depart="468" id="RLflow.117" from="inR" to="outL"/>
<trip type="noVar" depart="472" id="RLflow.118" from="inR" to="outL"/>
<trip type="noVar" depart="476" id="RLflow.119" from="inR" to="outL"/>
<trip type="noVar" depart="480" id="RLflow.120" from="inR" to="outL"/>
<trip type="noVar" depart="484" id="RLflow.121" from="inR" to="outL"/>
<trip type="noVar" depart="488" id="RLflow.122" from="inR" to="outL"/>
<trip type="noVar" depart="489" id="LUflow.6" from="inL" to="outU"/>
<trip type="noVar" depart="492" id="RLflow.123" from="inR" to="outL"/>
<trip type="noVar" depart="496" id="RLflow.124" from="inR" to="outL"/>
<trip type="noVar" depart="500" id="RLflow.125" from="inR" to="outL"/>
<trip type="noVar" depart="504" id="RLflow.126" from="inR" to="outL"/>
<trip type="noVar" depart="508" id="RLflow.127" from="inR" to="outL"/>
<trip type="noVar" depart="512" id="RLflow.128" from="inR" to="outL"/>
<trip type="noVar" depart="516" id="RLflow.129" from="inR" to="outL"/>
<trip type="noVar" depart="520" id="RLflow.130" from="inR" to="outL"/>
<trip type="noVar" depart="524" id="RLflow.131" from="inR" to="outL"/>
<trip type="noVar" depart="528" id="RLflow.132" from="inR" to="outL"/>
<trip type="noVar" depart="532" id="RLflow.133" from="inR" to="outL"/>
<trip type="noVar" depart="536" id="RLflow.134" from="inR" to="outL"/>
<trip type="noVar" depart="540" id="RLflow.135" from="inR" to="outL"/>
<trip type="noVar" depart="544" id="RLflow.136" from="inR" to="outL"/>
<trip type="noVar" depart="548" id="RLflow.137" from="inR" to="outL"/>
<trip type="noVar" depart="552" id="RLflow.138" from="inR" to="outL"/>
<trip type="noVar" depart="556" id="RLflow.139" from="inR" to="outL"/>
<trip type="noVar" depart="560" id="RLflow.140" from="inR" to="outL"/>
<trip type="noVar" depart="564" id="RLflow.141" from="inR" to="outL"/>
<trip type="noVar" depart="568" id="RLflow.142" from="inR" to="outL"/>
<trip type="noVar" depart="571" id="LUflow.7" from="inL" to="outU"/>
<trip type="noVar" depart="572" id="RLflow.143" from="inR" to="outL"/>
<trip type="noVar" depart="576" id="RLflow.144" from="inR" to="outL"/>
<trip type="noVar" depart="580" id="RLflow.145" from="inR" to="outL"/>
<trip type="noVar" depart="584" id="RLflow.146" from="inR" to="outL"/>
<trip type="noVar" depart="588" id="RLflow.147" from="inR" to="outL"/>
<trip type="noVar" depart="592" id="RLflow.148" from="inR" to="outL"/>
<trip type="noVar" depart="596" id="RLflow.149" from="inR" to="outL"/>
<trip type="noVar" depart="600" id="RLflow.150" from="inR" to="outL"/>
<trip type="noVar" depart="604" id="RLflow.151" from="inR" to="outL"/>
<trip type="noVar" depart="608" id="RLflow.152" from="inR" to="outL"/>
<trip type="noVar" depart="612" id="RLflow.153" from="inR" to="outL"/>
<trip type="noVar" depart="616" id="RLflow.154" from="inR" to="outL"/>
<trip type="noVar" depart="620" id="RLflow.155" from="inR" to="outL"/>
<trip type="noVar" depart="624" id="RLflow.156" from="inR" to="outL"/>
<trip type="noVar" depart="628" id="RLflow.157" from="inR" to="outL"/>
<trip type="noVar" depart="632" id="RLflow.158" from="inR" to="outL"/>
<trip type="noVar" depart="636" id="RLflow.159" from="inR" to="outL"/>
<trip type="noVar" depart="640" id="RLflow.160" from="inR" to="outL"/>
<trip type="noVar" depart="644" id="RLflow.161" from="inR" to="outL"/>
<trip type="noVar" depart="648" id="RLflow.162" from="inR" to="outL"/>
<trip type="noVar" depart="652" id="RLflow.163" from="inR" to="outL"/>
<trip type="noVar" depart="653" id="LUflow.8" from="inL" to="outU"/>
<trip type="noVar" depart="656" id="RLflow.164" from="inR" to="outL"/>
<trip type="noVar" depart="660" id="RLflow.165" from="inR" to="outL"/>
<trip type="noVar" depart="664" id="RLflow.166" from="inR" to="outL"/>
<trip type="noVar" depart="668" id="RLflow.167" from="inR" to="outL"/>
<trip type="noVar" depart="672" id="RLflow.168" from="inR" to="outL"/>
<trip type="noVar" depart="676" id="RLflow.169" from="inR" to="outL"/>
<trip type="noVar" depart="680" id="RLflow.170" from="inR" to="outL"/>
<trip type="noVar" depart="684" id="RLflow.171" from="inR" to="outL"/>
<trip type="noVar" depart="688" id="RLflow.172" from="inR" to="outL"/>
<trip type="noVar" depart="692" id="RLflow.173" from="inR" to="outL"/>
<trip type="noVar" depart="696" id="RLflow.174" from="inR" to="outL"/>
<trip type="noVar" depart="700" id="RLflow.175" from="inR" to="outL"/>
<trip type="noVar" depart="704" id="RLflow.176" from="inR" to="outL"/>
<trip type="noVar" depart="708" id="RLflow.177" from="inR" to="outL"/>
<trip type="noVar" depart="712" id="RLflow.178" from="inR" to="outL"/>
<trip type="noVar" depart="716" id="RLflow.179" from="inR" to="outL"/>
<trip type="noVar" depart="720" id="RLflow.180" from="inR" to="outL"/>
<trip type="noVar" depart="724" id="RLflow.181" from="inR" to="outL"/>
<trip type="noVar" depart="728" id="RLflow.182" from="inR" to="outL"/>
<trip type="noVar" depart="732" id="RLflow.183" from="inR" to="outL"/>
<trip type="noVar" depart="734" id="LUflow.9" from="inL" to="outU"/>
<trip type="noVar" depart="736" id="RLflow.184" from="inR" to="outL"/>
<trip type="noVar" depart="740" id="RLflow.185" from="inR" to="outL"/>
<trip type="noVar" depart="744" id="RLflow.186" from="inR" to="outL"/>
<trip type="noVar" depart="748" id="RLflow.187" from="inR" to="outL"/>
<trip type="noVar" depart="752" id="RLflow.188" from="inR" to="outL"/>
<trip type="noVar" depart="756" id="RLflow.189" from="inR" to="outL"/>
<trip type="noVar" depart="760" id="RLflow.190" from="inR" to="outL"/>
<trip type="noVar" depart="764" id="RLflow.191" from="inR" to="outL"/>
<trip type="noVar" depart="768" id="RLflow.192" from="inR" to="outL"/>
<trip type="noVar" depart="772" id="RLflow.193" from="inR" to="outL"/>
<trip type="noVar" depart="776" id="RLflow.194" from="inR" to="outL"/>
<trip type="noVar" depart="780" id="RLflow.195" from="inR" to="outL"/>
<trip type="noVar" depart="784" id="RLflow.196" from="inR" to="outL"/>
<trip type="noVar" depart="788" id="RLflow.197" from="inR" to="outL"/>
<trip type="noVar" depart="792" id="RLflow.198" from="inR" to="outL"/>
<trip type="noVar" depart="796" id="RLflow.199" from="inR" to="outL"/>
<trip type="noVar" depart="800" id="RLflow.200" from="inR" to="outL"/>
<trip type="noVar" depart="804" id="RLflow.201" from="inR" to="outL"/>
<trip type="noVar" depart="808" id="RLflow.202" from="inR" to="outL"/>
<trip type="noVar" depart="812" id="RLflow.203" from="inR" to="outL"/>
<trip type="noVar" depart="816" id="LUflow.10" from="inL" to="outU"/>
<trip type="noVar" depart="816" id="RLflow.204" from="inR" to="outL"/>
<trip type="noVar" depart="820" id="RLflow.205" from="inR" to="outL"/>
<trip type="noVar" depart="824" id="RLflow.206" from="inR" to="outL"/>
<trip type="noVar" depart="828" id="RLflow.207" from="inR" to="outL"/>
<trip type="noVar" depart="832" id="RLflow.208" from="inR" to="outL"/>
<trip type="noVar" depart="836" id="RLflow.209" from="inR" to="outL"/>
<trip type="noVar" depart="840" id="RLflow.210" from="inR" to="outL"/>
<trip type="noVar" depart="844" id="RLflow.211" from="inR" to="outL"/>
<trip type="noVar" depart="848" id="RLflow.212" from="inR" to="outL"/>
<trip type="noVar" depart="852" id="RLflow.213" from="inR" to="outL"/>
<trip type="noVar" depart="856" id="RLflow.214" from="inR" to="outL"/>
<trip type="noVar" depart="860" id="RLflow.215" from="inR" to="outL"/>
<trip type="noVar" depart="864" id="RLflow.216" from="inR" to="outL"/>
<trip type="noVar" depart="868" id="RLflow.217" from="inR" to="outL"/>
<trip type="noVar" depart="872" id="RLflow.218" from="inR" to="outL"/>
<trip type="noVar" depart="876" id="RLflow.219" from="inR" to="outL"/>
<trip type="noVar" depart="880" id="RLflow.220" from="inR" to="outL"/>
<trip type="noVar" depart="884" id="RLflow.221" from="inR" to="outL"/>
<trip type="noVar" depart="888" id="RLflow.222" from="inR" to="outL"/>
<trip type="noVar" depart="892" id="RLflow.223" from="inR" to="outL"/>
<trip type="noVar" depart="896" id="RLflow.224" from="inR" to="outL"/>
<trip type="noVar" depart="897" id="LUflow.11" from="inL" to="outU"/>
<trip type="noVar" depart="900" id="RLflow.225" from="inR" to="outL"/>
<trip type="noVar" depart="904" id="RLflow.226" from="inR" to="outL"/>
<trip type="noVar" depart="908" id="RLflow.227" from="inR" to="outL"/>
<trip type="noVar" depart="912" id="RLflow.228" from="inR" to="outL"/>
<trip type="noVar" depart="916" id="RLflow.229" from="inR" to="outL"/>
<trip type="noVar" depart="920" id="RLflow.230" from="inR" to="outL"/>
<trip type="noVar" depart="924" id="RLflow.231" from="inR" to="outL"/>
<trip type="noVar" depart="928" id="RLflow.232" from="inR" to="outL"/>
<trip type="noVar" depart="932" id="RLflow.233" from="inR" to="outL"/>
<trip type="noVar" depart="936" id="RLflow.234" from="inR" to="outL"/>
<trip type="noVar" depart="940" id="RLflow.235" from="inR" to="outL"/>
<trip type="noVar" depart="944" id="RLflow.236" from="inR" to="outL"/>
<trip type="noVar" depart="948" id="RLflow.237" from="inR" to="outL"/>
<trip type="noVar" depart="952" id="RLflow.238" from="inR" to="outL"/>
<trip type="noVar" depart="956" id="RLflow.239" from="inR" to="outL"/>
<trip type="noVar" depart="960" id="RLflow.240" from="inR" to="outL"/>
<trip type="noVar" depart="964" id="RLflow.241" from="inR" to="outL"/>
<trip type="noVar" depart="968" id="RLflow.242" from="inR" to="outL"/>
<trip type="noVar" depart="972" id="RLflow.243" from="inR" to="outL"/>
<trip type="noVar" depart="976" id="RLflow.244" from="inR" to="outL"/>
<trip type="noVar" depart="979" id="LUflow.12" from="inL" to="outU"/>
<trip type="noVar" depart="980" id="RLflow.245" from="inR" to="outL"/>
<trip type="noVar" depart="984" id="RLflow.246" from="inR" to="outL"/>
<trip type="noVar" depart="988" id="RLflow.247" from="inR" to="outL"/>
<trip type="noVar" depart="992" id="RLflow.248" from="inR" to="outL"/>
<trip type="noVar" depart="996" id="RLflow.249" from="inR" to="outL"/>
<trip type="noVar" depart="1001" id="RLflow.250" from="inR" to="outL"/>
<trip type="noVar" depart="1005" id="RLflow.251" from="inR" to="outL"/>
<trip type="noVar" depart="1009" id="RLflow.252" from="inR" to="outL"/>
<trip type="noVar" depart="1013" id="RLflow.253" from="inR" to="outL"/>
<trip type="noVar" depart="1017" id="RLflow.254" from="inR" to="outL"/>
<trip type="noVar" depart="1021" id="RLflow.255" from="inR" to="outL"/>
<trip type="noVar" depart="1025" id="RLflow.256" from="inR" to="outL"/>
<trip type="noVar" depart="1029" id="RLflow.257" from="inR" to="outL"/>
<trip type="noVar" depart="1033" id="RLflow.258" from="inR" to="outL"/>
<trip type="noVar" depart="1037" id="RLflow.259" from="inR" to="outL"/>
<trip type="noVar" depart="1041" id="RLflow.260" from="inR" to="outL"/>
<trip type="noVar" depart="1045" id="RLflow.261" from="inR" to="outL"/>
<trip type="noVar" depart="1049" id="RLflow.262" from="inR" to="outL"/>
<trip type="noVar" depart="1053" id="RLflow.263" from="inR" to="outL"/>
<trip type="noVar" depart="1057" id="RLflow.264" from="inR" to="outL"/>
<trip type="noVar" depart="1061" id="RLflow.265" from="inR" to="outL"/>
<trip type="noVar" depart="1061" id="LUflow.13" from="inL" to="outU"/>
<trip type="noVar" depart="1065" id="RLflow.266" from="inR" to="outL"/>
<trip type="noVar" depart="1069" id="RLflow.267" from="inR" to="outL"/>
<trip type="noVar" depart="1073" id="RLflow.268" from="inR" to="outL"/>
<trip type="noVar" depart="1077" id="RLflow.269" from="inR" to="outL"/>
<trip type="noVar" depart="1081" id="RLflow.270" from="inR" to="outL"/>
<trip type="noVar" depart="1085" id="RLflow.271" from="inR" to="outL"/>
<trip type="noVar" depart="1089" id="RLflow.272" from="inR" to="outL"/>
<trip type="noVar" depart="1093" id="RLflow.273" from="inR" to="outL"/>
<trip type="noVar" depart="1097" id="RLflow.274" from="inR" to="outL"/>
<trip type="noVar" depart="1101" id="RLflow.275" from="inR" to="outL"/>
<trip type="noVar" depart="1105" id="RLflow.276" from="inR" to="outL"/>
<trip type="noVar" depart="1109" id="RLflow.277" from="inR" to="outL"/>
<trip type="noVar" depart="1113" id="RLflow.278" from="inR" to="outL"/>
<trip type="noVar" depart="1117" id="RLflow.279" from="inR" to="outL"/>
<trip type="noVar" depart="1121" id="RLflow.280" from="inR" to="outL"/>
<trip type="noVar" depart="1125" id="RLflow.281" from="inR" to="outL"/>
<trip type="noVar" depart="1129" id="RLflow.282" from="inR" to="outL"/>
<trip type="noVar" depart="1133" id="RLflow.283" from="inR" to="outL"/>
<trip type="noVar" depart="1137" id="RLflow.284" from="inR" to="outL"/>
<trip type="noVar" depart="1141" id="RLflow.285" from="inR" to="outL"/>
<trip type="noVar" depart="1142" id="LUflow.14" from="inL" to="outU"/>
<trip type="noVar" depart="1145" id="RLflow.286" from="inR" to="outL"/>
<trip type="noVar" depart="1149" id="RLflow.287" from="inR" to="outL"/>
<trip type="noVar" depart="1153" id="RLflow.288" from="inR" to="outL"/>
<trip type="noVar" depart="1157" id="RLflow.289" from="inR" to="outL"/>
<trip type="noVar" depart="1161" id="RLflow.290" from="inR" to="outL"/>
<trip type="noVar" depart="1165" id="RLflow.291" from="inR" to="outL"/>
<trip type="noVar" depart="1169" id="RLflow.292" from="inR" to="outL"/>
<trip type="noVar" depart="1173" id="RLflow.293" from="inR" to="outL"/>
<trip type="noVar" depart="1177" id="RLflow.294" from="inR" to="outL"/>
<trip type="noVar" depart="1181" id="RLflow.295" from="inR" to="outL"/>
<trip type="noVar" depart="1185" id="RLflow.296" from="inR" to="outL"/>
<trip type="noVar" depart="1189" id="RLflow.297" from="inR" to="outL"/>
<trip type="noVar" depart="1193" id="RLflow.298" from="inR" to="outL"/>
<trip type="noVar" depart="1197" id="RLflow.299" from="inR" to="outL"/>
<trip type="noVar" depart="1201" id="RLflow.300" from="inR" to="outL"/>
<trip type="noVar" depart="1205" id="RLflow.301" from="inR" to="outL"/>
<trip type="noVar" depart="1209" id="RLflow.302" from="inR" to="outL"/>
<trip type="noVar" depart="1213" id="RLflow.303" from="inR" to="outL"/>
<trip type="noVar" depart="1217" id="RLflow.304" from="inR" to="outL"/>
<trip type="noVar" depart="1221" id="RLflow.305" from="inR" to="outL"/>
<trip type="noVar" depart="1224" id="LUflow.15" from="inL" to="outU"/>
<trip type="noVar" depart="1225" id="RLflow.306" from="inR" to="outL"/>
<trip type="noVar" depart="1229" id="RLflow.307" from="inR" to="outL"/>
<trip type="noVar" depart="1233" id="RLflow.308" from="inR" to="outL"/>
<trip type="noVar" depart="1237" id="RLflow.309" from="inR" to="outL"/>
<trip type="noVar" depart="1241" id="RLflow.310" from="inR" to="outL"/>
<trip type="noVar" depart="1245" id="RLflow.311" from="inR" to="outL"/>
<trip type="noVar" depart="1249" id="RLflow.312" from="inR" to="outL"/>
<trip type="noVar" depart="1253" id="RLflow.313" from="inR" to="outL"/>
<trip type="noVar" depart="1257" id="RLflow.314" from="inR" to="outL"/>
<trip type="noVar" depart="1261" id="RLflow.315" from="inR" to="outL"/>
<trip type="noVar" depart="1265" id="RLflow.316" from="inR" to="outL"/>
<trip type="noVar" depart="1269" id="RLflow.317" from="inR" to="outL"/>
<trip type="noVar" depart="1273" id="RLflow.318" from="inR" to="outL"/>
<trip type="noVar" depart="1277" id="RLflow.319" from="inR" to="outL"/>
<trip type="noVar" depart="1281" id="RLflow.320" from="inR" to="outL"/>
<trip type="noVar" depart="1285" id="RLflow.321" from="inR" to="outL"/>
<trip type="noVar" depart="1289" id="RLflow.322" from="inR" to="outL"/>
<trip type="noVar" depart="1293" id="RLflow.323" from="inR" to="outL"/>
<trip type="noVar" depart="1297" id="RLflow.324" from="inR" to="outL"/>
<trip type="noVar" depart="1301" id="RLflow.325" from="inR" to="outL"/>
<trip type="noVar" depart="1305" id="RLflow.326" from="inR" to="outL"/>
<trip type="noVar" depart="1306" id="LUflow.16" from="inL" to="outU"/>
<trip type="noVar" depart="1309" id="RLflow.327" from="inR" to="outL"/>
<trip type="noVar" depart="1313" id="RLflow.328" from="inR" to="outL"/>
<trip type="noVar" depart="1317" id="RLflow.329" from="inR" to="outL"/>
<trip type="noVar" depart="1321" id="RLflow.330" from="inR" to="outL"/>
<trip type="noVar" depart="1325" id="RLflow.331" from="inR" to="outL"/>
<trip type="noVar" depart="1329" id="RLflow.332" from="inR" to="outL"/>
<trip type="noVar" depart="1333" id="RLflow.333" from="inR" to="outL"/>
<trip type="noVar" depart="1337" id="RLflow.334" from="inR" to="outL"/>
<trip type="noVar" depart="1341" id="RLflow.335" from="inR" to="outL"/>
<trip type="noVar" depart="1345" id="RLflow.336" from="inR" to="outL"/>
<trip type="noVar" depart="1349" id="RLflow.337" from="inR" to="outL"/>
<trip type="noVar" depart="1353" id="RLflow.338" from="inR" to="outL"/>
<trip type="noVar" depart="1357" id="RLflow.339" from="inR" to="outL"/>
<trip type="noVar" depart="1361" id="RLflow.340" from="inR" to="outL"/>
<trip type="noVar" depart="1365" id="RLflow.341" from="inR" to="outL"/>
<trip type="noVar" depart="1369" id="RLflow.342" from="inR" to="outL"/>
<trip type="noVar" depart="1373" id="RLflow.343" from="inR" to="outL"/>
<trip type="noVar" depart="1377" id="RLflow.344" from="inR" to="outL"/>
<trip type="noVar" depart="1381" id="RLflow.345" from="inR" to="outL"/>
<trip type="noVar" depart="1385" id="RLflow.346" from="inR" to="outL"/>
<trip type="noVar" depart="1387" id="LUflow.17" from="inL" to="outU"/>
<trip type="noVar" depart="1389" id="RLflow.347" from="inR" to="outL"/>
<trip type="noVar" depart="1393" id="RLflow.348" from="inR" to="outL"/>
<trip type="noVar" depart="1397" id="RLflow.349" from="inR" to="outL"/>
<trip type="noVar" depart="1401" id="RLflow.350" from="inR" to="outL"/>
<trip type="noVar" depart="1405" id="RLflow.351" from="inR" to="outL"/>
<trip type="noVar" depart="1409" id="RLflow.352" from="inR" to="outL"/>
<trip type="noVar" depart="1413" id="RLflow.353" from="inR" to="outL"/>
<trip type="noVar" depart="1417" id="RLflow.354" from="inR" to="outL"/>
<trip type="noVar" depart="1421" id="RLflow.355" from="inR" to="outL"/>
<trip type="noVar" depart="1425" id="RLflow.356" from="inR" to="outL"/>
<trip type="noVar" depart="1429" id="RLflow.357" from="inR" to="outL"/>
<trip type="noVar" depart="1433" id="RLflow.358" from="inR" to="outL"/>
<trip type="noVar" depart="1437" id="RLflow.359" from="inR" to="outL"/>
<trip type="noVar" depart="1441" id="RLflow.360" from="inR" to="outL"/>
<trip type="noVar" depart="1445" id="RLflow.361" from="inR" to="outL"/>
<trip type="noVar" depart="1449" id="RLflow.362" from="inR" to="outL"/>
<trip type="noVar" depart="1453" id="RLflow.363" from="inR" to="outL"/>
<trip type="noVar" depart="1457" id="RLflow.364" from="inR" to="outL"/>
<trip type="noVar" depart="1461" id="RLflow.365" from="inR" to="outL"/>
<trip type="noVar" depart="1465" id="RLflow.366" from="inR" to="outL"/>
<trip type="noVar" depart="1469" id="LUflow.18" from="inL" to="outU"/>
<trip type="noVar" depart="1469" id="RLflow.367" from="inR" to="outL"/>
<trip type="noVar" depart="1473" id="RLflow.368" from="inR" to="outL"/>
<trip type="noVar" depart="1477" id="RLflow.369" from="inR" to="outL"/>
<trip type="noVar" depart="1481" id="RLflow.370" from="inR" to="outL"/>
<trip type="noVar" depart="1485" id="RLflow.371" from="inR" to="outL"/>
<trip type="noVar" depart="1489" id="RLflow.372" from="inR" to="outL"/>
<trip type="noVar" depart="1493" id="RLflow.373" from="inR" to="outL"/>
<trip type="noVar" depart="1497" id="RLflow.374" from="inR" to="outL"/>
<trip type="noVar" depart="1501" id="RLflow.375" from="inR" to="outL"/>
<trip type="noVar" depart="1505" id="RLflow.376" from="inR" to="outL"/>
<trip type="noVar" depart="1509" id="RLflow.377" from="inR" to="outL"/>
<trip type="noVar" depart="1513" id="RLflow.378" from="inR" to="outL"/>
<trip type="noVar" depart="1517" id="RLflow.379" from="inR" to="outL"/>
<trip type="noVar" depart="1521" id="RLflow.380" from="inR" to="outL"/>
<trip type="noVar" depart="1525" id="RLflow.381" from="inR" to="outL"/>
<trip type="noVar" depart="1529" id="RLflow.382" from="inR" to="outL"/>
<trip type="noVar" depart="1533" id="RLflow.383" from="inR" to="outL"/>
<trip type="noVar" depart="1537" id="RLflow.384" from="inR" to="outL"/>
<trip type="noVar" depart="1541" id="RLflow.385" from="inR" to="outL"/>
<trip type="noVar" depart="1545" id="RLflow.386" from="inR" to="outL"/>
<trip type="noVar" depart="1549" id="RLflow.387" from="inR" to="outL"/>
<trip type="noVar" depart="1551" id="LUflow.19" from="inL" to="outU"/>
<trip type="noVar" depart="1553" id="RLflow.388" from="inR" to="outL"/>
<trip type="noVar" depart="1557" id="RLflow.389" from="inR" to="outL"/>
<trip type="noVar" depart="1561" id="RLflow.390" from="inR" to="outL"/>
<trip type="noVar" depart="1565" id="RLflow.391" from="inR" to="outL"/>
<trip type="noVar" depart="1569" id="RLflow.392" from="inR" to="outL"/>
<trip type="noVar" depart="1573" id="RLflow.393" from="inR" to="outL"/>
<trip type="noVar" depart="1577" id="RLflow.394" from="inR" to="outL"/>
<trip type="noVar" depart="1581" id="RLflow.395" from="inR" to="outL"/>
<trip type="noVar" depart="1585" id="RLflow.396" from="inR" to="outL"/>
<trip type="noVar" depart="1589" id="RLflow.397" from="inR" to="outL"/>
<trip type="noVar" depart="1593" id="RLflow.398" from="inR" to="outL"/>