<?xml version="1.0" encoding="UTF-8"?>

<!-- generated on 2023-03-13 13:06:23 by Eclipse SUMO netedit Version 1.11.0
<configuration xmlns:xsi="http://www.w3.org/2001/XMLSchema-instance" xsi:noNamespaceSchemaLocation="http://sumo.dlr.de/xsd/netconvertConfiguration.xsd">

    <input>
        <sumo-net-file value="testint2.net.xml"/>
    </input>

    <output>
        <output-file value="testint2.net.xml"/>
    </output>

    <processing>
        <geometry.min-radius.fix.railways value="false"/>
        <geometry.max-grade.fix value="false"/>
        <offset.disable-normalization value="true"/>
        <lefthand value="false"/>
    </processing>

    <junctions>
        <no-turnarounds value="true"/>
        <junctions.corner-detail value="5"/>
        <junctions.limit-turn-speed value="5.5"/>
        <rectangular-lane-cut value="false"/>
    </junctions>

    <pedestrian>
        <walkingareas value="false"/>
    </pedestrian>

    <report>
        <aggregate-warnings value="5"/>
    </report>

</configuration>
-->

<net version="1.9" junctionCornerDetail="5" limitTurnSpeed="5.50" xmlns:xsi="http://www.w3.org/2001/XMLSchema-instance" xsi:noNamespaceSchemaLocation="http://sumo.dlr.de/xsd/net_file.xsd">

    <location netOffset="0.00,0.00" convBoundary="-8.12,-100.00,1200.00,200.00" origBoundary="-10000000000.00,-10000000000.00,10000000000.00,10000000000.00" projParameter="!"/>

    <edge id=":J1_0" function="internal">
        <lane id=":J1_0_0" index="0" speed="6.51" length="9.03" shape="98.40,7.20 98.05,4.75 97.00,3.00 95.25,1.95 92.80,1.60"/>
    </edge>
    <edge id=":J1_1" function="internal">
        <lane id=":J1_1_0" index="0" speed="13.89" length="14.40" shape="98.40,7.20 98.40,-7.20"/>
    </edge>
    <edge id=":J1_2" function="internal">
        <lane id=":J1_2_0" index="0" speed="8.00" length="5.93" shape="98.40,7.20 98.95,3.35 100.00,1.60"/>
    </edge>
    <edge id=":J1_12" function="internal">
        <lane id=":J1_12_0" index="0" speed="8.00" length="8.26" shape="100.00,1.60 100.60,0.60 103.35,-1.05 107.20,-1.60"/>
    </edge>
    <edge id=":J1_3" function="internal">
        <lane id=":J1_3_0" index="0" speed="6.51" length="9.03" shape="107.20,1.60 104.75,1.95 103.00,3.00 101.95,4.75 101.60,7.20"/>
    </edge>
    <edge id=":J1_4" function="internal">
        <lane id=":J1_4_0" index="0" speed="13.89" length="14.40" shape="107.20,1.60 92.80,1.60"/>
    </edge>
    <edge id=":J1_5" function="internal">
        <lane id=":J1_5_0" index="0" speed="8.00" length="14.19" shape="107.20,1.60 103.35,1.05 100.60,-0.60 98.95,-3.35 98.40,-7.20"/>
    </edge>
    <edge id=":J1_6" function="internal">
        <lane id=":J1_6_0" index="0" speed="6.51" length="9.03" shape="101.60,-7.20 101.95,-4.75 103.00,-3.00 104.75,-1.95 107.20,-1.60"/>
    </edge>
    <edge id=":J1_7" function="internal">
        <lane id=":J1_7_0" index="0" speed="13.89" length="14.40" shape="101.60,-7.20 101.60,7.20"/>
    </edge>
    <edge id=":J1_8" function="internal">
        <lane id=":J1_8_0" index="0" speed="8.00" length="5.93" shape="101.60,-7.20 101.05,-3.35 100.00,-1.60"/>
    </edge>
    <edge id=":J1_13" function="internal">
        <lane id=":J1_13_0" index="0" speed="8.00" length="8.26" shape="100.00,-1.60 99.40,-0.60 96.65,1.05 92.80,1.60"/>
    </edge>
    <edge id=":J1_9" function="internal">
        <lane id=":J1_9_0" index="0" speed="6.51" length="9.03" shape="92.80,-1.60 95.25,-1.95 97.00,-3.00 98.05,-4.75 98.40,-7.20"/>
    </edge>
    <edge id=":J1_10" function="internal">
        <lane id=":J1_10_0" index="0" speed="13.89" length="14.40" shape="92.80,-1.60 107.20,-1.60"/>
    </edge>
    <edge id=":J1_11" function="internal">
        <lane id=":J1_11_0" index="0" speed="8.00" length="14.19" shape="92.80,-1.60 96.65,-1.05 99.40,0.60 101.05,3.35 101.60,7.20"/>
    </edge>
    <edge id=":J2_0" function="internal">
        <lane id=":J2_0_0" index="0" speed="6.51" length="9.03" shape="1098.40,7.20 1098.05,4.75 1097.00,3.00 1095.25,1.95 1092.80,1.60"/>
    </edge>
    <edge id=":J2_1" function="internal">
        <lane id=":J2_1_0" index="0" speed="8.00" length="14.19" shape="1098.40,7.20 1098.95,3.35 1100.60,0.60 1103.35,-1.05 1107.20,-1.60"/>
    </edge>
    <edge id=":J2_2" function="internal">
        <lane id=":J2_2_0" index="0" speed="6.51" length="9.03" shape="1107.20,1.60 1104.75,1.95 1103.00,3.00 1101.95,4.75 1101.60,7.20"/>
    </edge>
    <edge id=":J2_3" function="internal">
        <lane id=":J2_3_0" index="0" speed="13.89" length="14.40" shape="1107.20,1.60 1092.80,1.60"/>
    </edge>
    <edge id=":J2_4" function="internal">
        <lane id=":J2_4_0" index="0" speed="13.89" length="14.40" shape="1092.80,-1.60 1107.20,-1.60"/>
    </edge>
    <edge id=":J2_5" function="internal">
        <lane id=":J2_5_0" index="0" speed="8.00" length="5.93" shape="1092.80,-1.60 1096.65,-1.05 1098.40,0.00"/>
    </edge>
    <edge id=":J2_6" function="internal">
        <lane id=":J2_6_0" index="0" speed="8.00" length="8.26" shape="1098.40,0.00 1099.40,0.60 1101.05,3.35 1101.60,7.20"/>
    </edge>
    <edge id=":J3_0" function="internal">
        <lane id=":J3_0_0" index="0" speed="6.07" length="8.02" shape="103.44,151.43 101.23,151.22 99.66,150.36 98.71,148.83 98.40,146.64"/>
    </edge>
    <edge id=":J3_1" function="internal">
        <lane id=":J3_1_0" index="0" speed="3.90" length="2.67" shape="101.60,146.64 101.70,147.37 102.02,147.88 102.54,148.17 103.28,148.23"/>
    </edge>
    <edge id=":J5_0" function="internal">
        <lane id=":J5_0_0" index="0" speed="13.89" length="0.49" shape="9.26,81.36 9.15,81.46 9.08,81.53 9.00,81.59 8.89,81.68"/>
    </edge>
    <edge id=":J5_1" function="internal">
        <lane id=":J5_1_0" index="0" speed="13.89" length="0.16" shape="6.94,79.14 6.97,79.11 7.00,79.09 7.02,79.07 7.06,79.04"/>
    </edge>
    <edge id=":J8_0" function="internal">
        <lane id=":J8_0_0" index="0" speed="6.40" length="9.04" shape="1098.40,107.36 1098.05,104.90 1096.98,103.17 1095.21,102.20 1092.73,101.97"/>
    </edge>
    <edge id=":J8_1" function="internal">
        <lane id=":J8_1_0" index="0" speed="13.89" length="14.41" shape="1098.40,107.36 1098.40,92.96"/>
    </edge>
    <edge id=":J8_2" function="internal">
        <lane id=":J8_2_0" index="0" speed="13.89" length="14.41" shape="1101.60,92.96 1101.60,107.36"/>
    </edge>
    <edge id=":J8_3" function="internal">
        <lane id=":J8_3_0" index="0" speed="8.17" length="5.84" shape="1101.60,92.96 1101.05,96.73 1100.00,98.47"/>
    </edge>
    <edge id=":J8_6" function="internal">
        <lane id=":J8_6_0" index="0" speed="8.17" length="8.43" shape="1100.00,98.47 1099.38,99.49 1096.61,101.24 1092.73,101.97"/>
    </edge>
    <edge id=":J8_4" function="internal">
        <lane id=":J8_4_0" index="0" speed="6.71" length="9.29" shape="1092.57,98.77 1095.12,98.30 1096.94,97.17 1098.04,95.39 1098.40,92.96"/>
    </edge>
    <edge id=":J8_5" function="internal">
        <lane id=":J8_5_0" index="0" speed="7.91" length="14.39" shape="1092.57,98.77 1096.52,99.14 1099.34,100.69 1101.04,103.43 1101.60,107.36"/>
    </edge>

    <edge id="-E0" from="J6" to="J5" priority="-1">
        <lane id="-E0_0" index="0" speed="13.89" length="15.65" shape="20.63,70.60 9.26,81.36"/>
    </edge>
    <edge id="-E1" from="J5" to="J7" priority="-1">
        <lane id="-E1_0" index="0" speed="13.89" length="20.22" shape="8.89,81.68 -7.14,94.01"/>
    </edge>
    <edge id="-E2" from="J8" to="J3" priority="-1">
        <lane id="-E2_0" index="0" speed="13.89" length="990.52" shape="1092.73,101.97 103.44,151.43"/>
    </edge>
    <edge id="-E3" from="J2" to="J8" priority="-1">
        <lane id="-E3_0" index="0" speed="13.89" length="85.76" shape="1101.60,7.20 1101.60,92.96"/>
    </edge>
    <edge id="E0" from="J5" to="J6" priority="-1">
        <lane id="E0_0" index="0" speed="13.89" length="15.65" shape="7.06,79.04 18.43,68.28"/>
    </edge>
    <edge id="E1" from="J7" to="J5" priority="-1">
        <lane id="E1_0" index="0" speed="13.89" length="20.22" shape="-9.10,91.47 6.94,79.14"/>
    </edge>
    <edge id="E2" from="J3" to="J8" priority="-1">
        <lane id="E2_0" index="0" speed="13.89" length="990.52" shape="103.28,148.23 1092.57,98.77"/>
    </edge>
    <edge id="E3" from="J8" to="J2" priority="-1">
        <lane id="E3_0" index="0" speed="13.89" length="85.76" shape="1098.40,92.96 1098.40,7.20"/>
    </edge>
    <edge id="inD" from="J4" to="J1" priority="-1">
        <lane id="inD_0" index="0" speed="13.89" length="92.80" shape="101.60,-100.00 101.60,-7.20"/>
    </edge>
    <edge id="inL" from="J0" to="J1" priority="-1">
        <lane id="inL_0" index="0" speed="13.89" length="92.80" shape="0.00,-1.60 92.80,-1.60"/>
    </edge>
    <edge id="inR" from="J9" to="J2" priority="-1">
        <lane id="inR_0" index="0" speed="13.89" length="92.80" shape="1200.00,1.60 1107.20,1.60"/>
    </edge>
    <edge id="inU" from="J10" to="J8" priority="-1">
        <lane id="inU_0" index="0" speed="13.89" length="92.64" shape="1098.40,200.00 1098.40,107.36"/>
    </edge>
    <edge id="notinR" from="J2" to="J1" priority="-1">
        <lane id="notinR_0" index="0" speed="13.89" length="985.60" shape="1092.80,1.60 107.20,1.60"/>
    </edge>
    <edge id="notinU" from="J3" to="J1" priority="-1">
        <lane id="notinU_0" index="0" speed="13.89" length="139.44" shape="98.40,146.64 98.40,7.20"/>
    </edge>
    <edge id="notoutR" from="J1" to="J2" priority="-1">
        <lane id="notoutR_0" index="0" speed="13.89" length="985.60" shape="107.20,-1.60 1092.80,-1.60"/>
    </edge>
    <edge id="notoutU" from="J1" to="J3" priority="-1">
        <lane id="notoutU_0" index="0" speed="13.89" length="139.44" shape="101.60,7.20 101.60,146.64"/>
    </edge>
    <edge id="outD" from="J1" to="J4" priority="-1">
        <lane id="outD_0" index="0" speed="13.89" length="92.80" shape="98.40,-7.20 98.40,-100.00"/>
    </edge>
    <edge id="outL" from="J1" to="J0" priority="-1">
        <lane id="outL_0" index="0" speed="13.89" length="92.80" shape="92.80,1.60 0.00,1.60"/>
    </edge>
    <edge id="outR" from="J2" to="J9" priority="-1">
        <lane id="outR_0" index="0" speed="13.89" length="92.80" shape="1107.20,-1.60 1200.00,-1.60"/>
    </edge>
    <edge id="outU" from="J8" to="J10" priority="-1">
        <lane id="outU_0" index="0" speed="13.89" length="92.64" shape="1101.60,107.36 1101.60,200.00"/>
    </edge>

    <junction id="J0" type="dead_end" x="0.00" y="0.00" incLanes="outL_0" intLanes="" shape="0.00,0.00 0.00,3.20 0.00,0.00"/>
    <junction id="J1" type="priority" x="100.00" y="0.00" incLanes="notinU_0 notinR_0 inD_0 inL_0" intLanes=":J1_0_0 :J1_1_0 :J1_12_0 :J1_3_0 :J1_4_0 :J1_5_0 :J1_6_0 :J1_7_0 :J1_13_0 :J1_9_0 :J1_10_0 :J1_11_0" shape="96.80,7.20 103.20,7.20 103.64,4.98 104.20,4.20 104.98,3.64 105.98,3.31 107.20,3.20 107.20,-3.20 104.98,-3.64 104.20,-4.20 103.64,-4.98 103.31,-5.98 103.20,-7.20 96.80,-7.20 96.36,-4.98 95.80,-4.20 95.02,-3.64 94.02,-3.31 92.80,-3.20 92.80,3.20 95.02,3.64 95.80,4.20 96.36,4.98 96.69,5.98">
        <request index="0"  response="000000000000" foes="000100010000" cont="0"/>
        <request index="1"  response="000000000000" foes="111100110000" cont="0"/>
        <request index="2"  response="000011000000" foes="110011110000" cont="1"/>
        <request index="3"  response="000010000000" foes="100010000000" cont="0"/>
        <request index="4"  response="000110000111" foes="100110000111" cont="0"/>
        <request index="5"  response="011110000110" foes="011110000110" cont="0"/>
        <request index="6"  response="000000000000" foes="010000000100" cont="0"/>
        <request index="7"  response="000000000000" foes="110000111100" cont="0"/>
        <request index="8"  response="000000000011" foes="110000110011" cont="1"/>
        <request index="9"  response="000000000010" foes="000000100010" cont="0"/>
        <request index="10" response="000111000110" foes="000111100110" cont="0"/>
        <request index="11" response="000110011110" foes="000110011110" cont="0"/>
    </junction>
    <junction id="J10" type="dead_end" x="1100.00" y="200.00" incLanes="outU_0" intLanes="" shape="1100.00,200.00 1103.20,200.00 1100.00,200.00"/>
    <junction id="J2" type="priority" x="1100.00" y="0.00" incLanes="E3_0 inR_0 notoutR_0" intLanes=":J2_0_0 :J2_1_0 :J2_2_0 :J2_3_0 :J2_4_0 :J2_6_0" shape="1096.80,7.20 1103.20,7.20 1103.64,4.98 1104.20,4.20 1104.98,3.64 1105.98,3.31 1107.20,3.20 1107.20,-3.20 1092.80,-3.20 1092.80,3.20 1095.02,3.64 1095.80,4.20 1096.36,4.98 1096.69,5.98">
        <request index="0" response="001000" foes="001000" cont="0"/>
        <request index="1" response="111000" foes="111000" cont="0"/>
        <request index="2" response="000000" foes="100000" cont="0"/>
        <request index="3" response="000000" foes="100011" cont="0"/>
        <request index="4" response="000000" foes="000010" cont="0"/>
        <request index="5" response="001100" foes="001110" cont="1"/>
    </junction>
    <junction id="J3" type="priority" x="100.00" y="150.00" incLanes="-E2_0 notoutU_0" intLanes=":J3_0_0 :J3_1_0" shape="103.52,153.03 103.20,146.64 96.80,146.64 96.99,148.68 97.55,150.34 98.48,151.60 99.79,152.47 101.47,152.94">
        <request index="0" response="00" foes="00" cont="0"/>
        <request index="1" response="00" foes="00" cont="0"/>
    </junction>
    <junction id="J4" type="dead_end" x="100.00" y="-100.00" incLanes="outD_0" intLanes="" shape="100.00,-100.00 96.80,-100.00 100.00,-100.00"/>
    <junction id="J5" type="priority" x="8.04" y="80.31" incLanes="-E0_0 E1_0" intLanes=":J5_0_0 :J5_1_0" shape="10.36,82.52 5.96,77.87 9.86,82.95 10.05,82.80 10.12,82.74 10.18,82.69">
        <request index="0" response="00" foes="00" cont="0"/>
        <request index="1" response="00" foes="00" cont="0"/>
    </junction>
    <junction id="J6" type="dead_end" x="19.53" y="69.44" incLanes="E0_0" intLanes="" shape="19.53,69.44 17.33,67.12 19.53,69.44"/>
    <junction id="J7" type="dead_end" x="-8.12" y="92.74" incLanes="-E1_0" intLanes="" shape="-8.12,92.74 -6.17,95.28 -8.12,92.74"/>
    <junction id="J8" type="priority" x="1100.00" y="100.00" incLanes="inU_0 -E3_0 E2_0" intLanes=":J8_0_0 :J8_1_0 :J8_2_0 :J8_6_0 :J8_4_0 :J8_5_0" shape="1096.80,107.36 1103.20,107.36 1103.20,92.96 1096.80,92.96 1096.32,95.20 1095.72,96.01 1094.88,96.61 1093.80,96.99 1092.49,97.17 1092.80,103.56 1095.02,103.90 1095.80,104.41 1096.36,105.16 1096.69,106.15">
        <request index="0" response="000000" foes="001000" cont="0"/>
        <request index="1" response="000000" foes="111000" cont="0"/>
        <request index="2" response="000000" foes="100000" cont="0"/>
        <request index="3" response="000011" foes="100011" cont="1"/>
        <request index="4" response="000010" foes="000010" cont="0"/>
        <request index="5" response="001110" foes="001110" cont="0"/>
    </junction>
    <junction id="J9" type="dead_end" x="1200.00" y="0.00" incLanes="outR_0" intLanes="" shape="1200.00,0.00 1200.00,-3.20 1200.00,0.00"/>

    <junction id=":J1_12_0" type="internal" x="100.00" y="1.60" incLanes=":J1_2_0 inD_0" intLanes=":J1_4_0 :J1_5_0 :J1_6_0 :J1_7_0 :J1_10_0 :J1_11_0"/>
    <junction id=":J1_13_0" type="internal" x="100.00" y="-1.60" incLanes=":J1_8_0 notinU_0" intLanes=":J1_0_0 :J1_1_0 :J1_4_0 :J1_5_0 :J1_10_0 :J1_11_0"/>
    <junction id=":J2_6_0" type="internal" x="1098.40" y="0.00" incLanes=":J2_5_0 inR_0" intLanes=":J2_1_0 :J2_2_0 :J2_3_0"/>
    <junction id=":J8_6_0" type="internal" x="1100.00" y="98.47" incLanes=":J8_3_0 inU_0" intLanes=":J8_0_0 :J8_1_0 :J8_5_0"/>

    <connection from="-E0" to="-E1" fromLane="0" toLane="0" via=":J5_0_0" dir="s" state="M"/>
    <connection from="-E2" to="notinU" fromLane="0" toLane="0" via=":J3_0_0" dir="l" state="M"/>
    <connection from="-E3" to="outU" fromLane="0" toLane="0" via=":J8_2_0" dir="s" state="M"/>
    <connection from="-E3" to="-E2" fromLane="0" toLane="0" via=":J8_3_0" dir="l" state="m"/>
    <connection from="E1" to="E0" fromLane="0" toLane="0" via=":J5_1_0" dir="s" state="M"/>
    <connection from="E2" to="E3" fromLane="0" toLane="0" via=":J8_4_0" dir="r" state="m"/>
    <connection from="E2" to="outU" fromLane="0" toLane="0" via=":J8_5_0" dir="l" state="m"/>
    <connection from="E3" to="notinR" fromLane="0" toLane="0" via=":J2_0_0" dir="r" state="m"/>
    <connection from="E3" to="outR" fromLane="0" toLane="0" via=":J2_1_0" dir="l" state="m"/>
    <connection from="inD" to="notoutR" fromLane="0" toLane="0" via=":J1_6_0" dir="r" state="M"/>
    <connection from="inD" to="notoutU" fromLane="0" toLane="0" via=":J1_7_0" dir="s" state="M"/>
    <connection from="inD" to="outL" fromLane="0" toLane="0" via=":J1_8_0" dir="l" state="m"/>
    <connection from="inL" to="outD" fromLane="0" toLane="0" via=":J1_9_0" dir="r" state="m"/>
    <connection from="inL" to="notoutR" fromLane="0" toLane="0" via=":J1_10_0" dir="s" state="m"/>
    <connection from="inL" to="notoutU" fromLane="0" toLane="0" via=":J1_11_0" dir="l" state="m"/>
    <connection from="inR" to="-E3" fromLane="0" toLane="0" via=":J2_2_0" dir="r" state="M"/>
    <connection from="inR" to="notinR" fromLane="0" toLane="0" via=":J2_3_0" dir="s" state="M"/>
    <connection from="inU" to="-E2" fromLane="0" toLane="0" via=":J8_0_0" dir="r" state="M"/>
    <connection from="inU" to="E3" fromLane="0" toLane="0" via=":J8_1_0" dir="s" state="M"/>
    <connection from="notinR" to="notoutU" fromLane="0" toLane="0" via=":J1_3_0" dir="r" state="m"/>
    <connection from="notinR" to="outL" fromLane="0" toLane="0" via=":J1_4_0" dir="s" state="m"/>
    <connection from="notinR" to="outD" fromLane="0" toLane="0" via=":J1_5_0" dir="l" state="m"/>
    <connection from="notinU" to="outL" fromLane="0" toLane="0" via=":J1_0_0" dir="r" state="M"/>
    <connection from="notinU" to="outD" fromLane="0" toLane="0" via=":J1_1_0" dir="s" state="M"/>
    <connection from="notinU" to="notoutR" fromLane="0" toLane="0" via=":J1_2_0" dir="l" state="m"/>
    <connection from="notoutR" to="outR" fromLane="0" toLane="0" via=":J2_4_0" dir="s" state="M"/>
    <connection from="notoutR" to="-E3" fromLane="0" toLane="0" via=":J2_5_0" dir="l" state="m"/>
    <connection from="notoutU" to="E2" fromLane="0" toLane="0" via=":J3_1_0" dir="r" state="M"/>

    <connection from=":J1_0" to="outL" fromLane="0" toLane="0" dir="r" state="M"/>
    <connection from=":J1_1" to="outD" fromLane="0" toLane="0" dir="s" state="M"/>
    <connection from=":J1_2" to="notoutR" fromLane="0" toLane="0" via=":J1_12_0" dir="l" state="m"/>
    <connection from=":J1_12" to="notoutR" fromLane="0" toLane="0" dir="l" state="M"/>
    <connection from=":J1_3" to="notoutU" fromLane="0" toLane="0" dir="r" state="M"/>
    <connection from=":J1_4" to="outL" fromLane="0" toLane="0" dir="s" state="M"/>
    <connection from=":J1_5" to="outD" fromLane="0" toLane="0" dir="l" state="M"/>
    <connection from=":J1_6" to="notoutR" fromLane="0" toLane="0" dir="r" state="M"/>
    <connection from=":J1_7" to="notoutU" fromLane="0" toLane="0" dir="s" state="M"/>
    <connection from=":J1_8" to="outL" fromLane="0" toLane="0" via=":J1_13_0" dir="l" state="m"/>
    <connection from=":J1_13" to="outL" fromLane="0" toLane="0" dir="l" state="M"/>
    <connection from=":J1_9" to="outD" fromLane="0" toLane="0" dir="r" state="M"/>
    <connection from=":J1_10" to="notoutR" fromLane="0" toLane="0" dir="s" state="M"/>
    <connection from=":J1_11" to="notoutU" fromLane="0" toLane="0" dir="l" state="M"/>
    <connection from=":J2_0" to="notinR" fromLane="0" toLane="0" dir="r" state="M"/>
    <connection from=":J2_1" to="outR" fromLane="0" toLane="0" dir="l" state="M"/>
    <connection from=":J2_2" to="-E3" fromLane="0" toLane="0" dir="r" state="M"/>
    <connection from=":J2_3" to="notinR" fromLane="0" toLane="0" dir="s" state="M"/>
    <connection from=":J2_4" to="outR" fromLane="0" toLane="0" dir="s" state="M"/>
    <connection from=":J2_5" to="-E3" fromLane="0" toLane="0" via=":J2_6_0" dir="l" state="m"/>
    <connection from=":J2_6" to="-E3" fromLane="0" toLane="0" dir="l" state="M"/>
    <connection from=":J3_0" to="notinU" fromLane="0" toLane="0" dir="l" state="M"/>
    <connection from=":J3_1" to="E2" fromLane="0" toLane="0" dir="r" state="M"/>
    <connection from=":J5_0" to="-E1" fromLane="0" toLane="0" dir="s" state="M"/>
    <connection from=":J5_1" to="E0" fromLane="0" toLane="0" dir="s" state="M"/>
    <connection from=":J8_0" to="-E2" fromLane="0" toLane="0" dir="r" state="M"/>
    <connection from=":J8_1" to="E3" fromLane="0" toLane="0" dir="s" state="M"/>
    <connection from=":J8_2" to="outU" fromLane="0" toLane="0" dir="s" state="M"/>
    <connection from=":J8_3" to="-E2" fromLane="0" toLane="0" via=":J8_6_0" dir="l" state="m"/>
    <connection from=":J8_6" to="-E2" fromLane="0" toLane="0" dir="l" state="M"/>
    <connection from=":J8_4" to="E3" fromLane="0" toLane="0" dir="r" state="M"/>
    <connection from=":J8_5" to="outU" fromLane="0" toLane="0" dir="l" state="M"/>

</net>
