<?xml version="1.0" encoding="UTF-8"?>

<!-- generated on 2022-03-30 14:15:57 by Eclipse SUMO netedit Version 1.11.0
<configuration xmlns:xsi="http://www.w3.org/2001/XMLSchema-instance" xsi:noNamespaceSchemaLocation="http://sumo.dlr.de/xsd/netconvertConfiguration.xsd">

    <input>
        <sumo-net-file value="/Users/davidneiman/Documents/GitHub.nosync/traffic-routing/surtrac_test/tictactoe.net.xml"/>
    </input>

    <output>
        <output-file value="/Users/davidneiman/Documents/GitHub.nosync/traffic-routing/surtrac_test/tictactoe.net.xml"/>
    </output>

    <processing>
        <geometry.min-radius.fix.railways value="false"/>
        <geometry.max-grade.fix value="false"/>
        <offset.disable-normalization value="true"/>
        <lefthand value="false"/>
    </processing>

    <junctions>
        <no-turnarounds value="true"/>
        <junctions.corner-detail value="5"/>
        <junctions.limit-turn-speed value="5.5"/>
        <rectangular-lane-cut value="false"/>
    </junctions>

    <pedestrian>
        <walkingareas value="false"/>
    </pedestrian>

    <report>
        <aggregate-warnings value="5"/>
    </report>

</configuration>
-->

<net version="1.9" junctionCornerDetail="5" limitTurnSpeed="5.50" xmlns:xsi="http://www.w3.org/2001/XMLSchema-instance" xsi:noNamespaceSchemaLocation="http://sumo.dlr.de/xsd/net_file.xsd">

    <location netOffset="0.00,0.00" convBoundary="0.00,-400.00,600.00,200.00" origBoundary="-10000000000.00,-10000000000.00,10000000000.00,10000000000.00" projParameter="!"/>

    <edge id=":J1_0" function="internal">
        <lane id=":J1_0_0" index="0" speed="6.51" length="9.03" shape="195.20,10.40 194.85,7.95 193.80,6.20 192.05,5.15 189.60,4.80"/>
    </edge>
    <edge id=":J1_1" function="internal">
        <lane id=":J1_1_0" index="0" speed="13.89" length="20.80" shape="195.20,10.40 195.20,-10.40"/>
        <lane id=":J1_1_1" index="1" speed="13.89" length="20.80" shape="198.40,10.40 198.40,-10.40"/>
    </edge>
    <edge id=":J1_3" function="internal">
        <lane id=":J1_3_0" index="0" speed="9.26" length="6.96" shape="198.40,10.40 199.15,5.15 200.00,3.73"/>
    </edge>
    <edge id=":J1_16" function="internal">
        <lane id=":J1_16_0" index="0" speed="9.26" length="12.40" shape="200.00,3.73 201.40,1.40 205.15,-0.85 210.40,-1.60"/>
    </edge>
    <edge id=":J1_4" function="internal">
        <lane id=":J1_4_0" index="0" speed="6.51" length="9.03" shape="210.40,4.80 207.95,5.15 206.20,6.20 205.15,7.95 204.80,10.40"/>
    </edge>
    <edge id=":J1_5" function="internal">
        <lane id=":J1_5_0" index="0" speed="13.89" length="20.80" shape="210.40,4.80 189.60,4.80"/>
        <lane id=":J1_5_1" index="1" speed="13.89" length="20.80" shape="210.40,1.60 189.60,1.60"/>
    </edge>
    <edge id=":J1_7" function="internal">
        <lane id=":J1_7_0" index="0" speed="9.26" length="6.96" shape="210.40,1.60 205.15,0.85 203.73,0.00"/>
    </edge>
    <edge id=":J1_17" function="internal">
        <lane id=":J1_17_0" index="0" speed="9.26" length="12.40" shape="203.73,0.00 201.40,-1.40 199.15,-5.15 198.40,-10.40"/>
    </edge>
    <edge id=":J1_8" function="internal">
        <lane id=":J1_8_0" index="0" speed="6.51" length="9.03" shape="204.80,-10.40 205.15,-7.95 206.20,-6.20 207.95,-5.15 210.40,-4.80"/>
    </edge>
    <edge id=":J1_9" function="internal">
        <lane id=":J1_9_0" index="0" speed="13.89" length="20.80" shape="204.80,-10.40 204.80,10.40"/>
        <lane id=":J1_9_1" index="1" speed="13.89" length="20.80" shape="201.60,-10.40 201.60,10.40"/>
    </edge>
    <edge id=":J1_11" function="internal">
        <lane id=":J1_11_0" index="0" speed="9.26" length="6.96" shape="201.60,-10.40 200.85,-5.15 200.00,-3.73"/>
    </edge>
    <edge id=":J1_18" function="internal">
        <lane id=":J1_18_0" index="0" speed="9.26" length="12.40" shape="200.00,-3.73 198.60,-1.40 194.85,0.85 189.60,1.60"/>
    </edge>
    <edge id=":J1_12" function="internal">
        <lane id=":J1_12_0" index="0" speed="6.51" length="9.03" shape="189.60,-4.80 192.05,-5.15 193.80,-6.20 194.85,-7.95 195.20,-10.40"/>
    </edge>
    <edge id=":J1_13" function="internal">
        <lane id=":J1_13_0" index="0" speed="13.89" length="20.80" shape="189.60,-4.80 210.40,-4.80"/>
        <lane id=":J1_13_1" index="1" speed="13.89" length="20.80" shape="189.60,-1.60 210.40,-1.60"/>
    </edge>
    <edge id=":J1_15" function="internal">
        <lane id=":J1_15_0" index="0" speed="9.26" length="6.96" shape="189.60,-1.60 194.85,-0.85 196.27,-0.00"/>
    </edge>
    <edge id=":J1_19" function="internal">
        <lane id=":J1_19_0" index="0" speed="9.26" length="12.40" shape="196.27,-0.00 198.60,1.40 200.85,5.15 201.60,10.40"/>
    </edge>
    <edge id=":J2_0" function="internal">
        <lane id=":J2_0_0" index="0" speed="6.51" length="9.03" shape="395.20,10.40 394.85,7.95 393.80,6.20 392.05,5.15 389.60,4.80"/>
    </edge>
    <edge id=":J2_1" function="internal">
        <lane id=":J2_1_0" index="0" speed="13.89" length="20.80" shape="395.20,10.40 395.20,-10.40"/>
        <lane id=":J2_1_1" index="1" speed="13.89" length="20.80" shape="398.40,10.40 398.40,-10.40"/>
    </edge>
    <edge id=":J2_3" function="internal">
        <lane id=":J2_3_0" index="0" speed="9.26" length="6.96" shape="398.40,10.40 399.15,5.15 400.00,3.73"/>
    </edge>
    <edge id=":J2_16" function="internal">
        <lane id=":J2_16_0" index="0" speed="9.26" length="12.40" shape="400.00,3.73 401.40,1.40 405.15,-0.85 410.40,-1.60"/>
    </edge>
    <edge id=":J2_4" function="internal">
        <lane id=":J2_4_0" index="0" speed="6.51" length="9.03" shape="410.40,4.80 407.95,5.15 406.20,6.20 405.15,7.95 404.80,10.40"/>
    </edge>
    <edge id=":J2_5" function="internal">
        <lane id=":J2_5_0" index="0" speed="13.89" length="20.80" shape="410.40,4.80 389.60,4.80"/>
        <lane id=":J2_5_1" index="1" speed="13.89" length="20.80" shape="410.40,1.60 389.60,1.60"/>
    </edge>
    <edge id=":J2_7" function="internal">
        <lane id=":J2_7_0" index="0" speed="9.26" length="6.96" shape="410.40,1.60 405.15,0.85 403.73,-0.00"/>
    </edge>
    <edge id=":J2_17" function="internal">
        <lane id=":J2_17_0" index="0" speed="9.26" length="12.40" shape="403.73,-0.00 401.40,-1.40 399.15,-5.15 398.40,-10.40"/>
    </edge>
    <edge id=":J2_8" function="internal">
        <lane id=":J2_8_0" index="0" speed="6.51" length="9.03" shape="404.80,-10.40 405.15,-7.95 406.20,-6.20 407.95,-5.15 410.40,-4.80"/>
    </edge>
    <edge id=":J2_9" function="internal">
        <lane id=":J2_9_0" index="0" speed="13.89" length="20.80" shape="404.80,-10.40 404.80,10.40"/>
        <lane id=":J2_9_1" index="1" speed="13.89" length="20.80" shape="401.60,-10.40 401.60,10.40"/>
    </edge>
    <edge id=":J2_11" function="internal">
        <lane id=":J2_11_0" index="0" speed="9.26" length="6.96" shape="401.60,-10.40 400.85,-5.15 400.00,-3.73"/>
    </edge>
    <edge id=":J2_18" function="internal">
        <lane id=":J2_18_0" index="0" speed="9.26" length="12.40" shape="400.00,-3.73 398.60,-1.40 394.85,0.85 389.60,1.60"/>
    </edge>
    <edge id=":J2_12" function="internal">
        <lane id=":J2_12_0" index="0" speed="6.51" length="9.03" shape="389.60,-4.80 392.05,-5.15 393.80,-6.20 394.85,-7.95 395.20,-10.40"/>
    </edge>
    <edge id=":J2_13" function="internal">
        <lane id=":J2_13_0" index="0" speed="13.89" length="20.80" shape="389.60,-4.80 410.40,-4.80"/>
        <lane id=":J2_13_1" index="1" speed="13.89" length="20.80" shape="389.60,-1.60 410.40,-1.60"/>
    </edge>
    <edge id=":J2_15" function="internal">
        <lane id=":J2_15_0" index="0" speed="9.26" length="6.96" shape="389.60,-1.60 394.85,-0.85 396.27,0.00"/>
    </edge>
    <edge id=":J2_19" function="internal">
        <lane id=":J2_19_0" index="0" speed="9.26" length="12.40" shape="396.27,0.00 398.60,1.40 400.85,5.15 401.60,10.40"/>
    </edge>
    <edge id=":J4_0" function="internal">
        <lane id=":J4_0_0" index="0" speed="6.51" length="9.03" shape="195.20,-189.60 194.85,-192.05 193.80,-193.80 192.05,-194.85 189.60,-195.20"/>
    </edge>
    <edge id=":J4_1" function="internal">
        <lane id=":J4_1_0" index="0" speed="13.89" length="20.80" shape="195.20,-189.60 195.20,-210.40"/>
        <lane id=":J4_1_1" index="1" speed="13.89" length="20.80" shape="198.40,-189.60 198.40,-210.40"/>
    </edge>
    <edge id=":J4_3" function="internal">
        <lane id=":J4_3_0" index="0" speed="9.26" length="6.96" shape="198.40,-189.60 199.15,-194.85 200.00,-196.27"/>
    </edge>
    <edge id=":J4_16" function="internal">
        <lane id=":J4_16_0" index="0" speed="9.26" length="12.40" shape="200.00,-196.27 201.40,-198.60 205.15,-200.85 210.40,-201.60"/>
    </edge>
    <edge id=":J4_4" function="internal">
        <lane id=":J4_4_0" index="0" speed="6.51" length="9.03" shape="210.40,-195.20 207.95,-194.85 206.20,-193.80 205.15,-192.05 204.80,-189.60"/>
    </edge>
    <edge id=":J4_5" function="internal">
        <lane id=":J4_5_0" index="0" speed="13.89" length="20.80" shape="210.40,-195.20 189.60,-195.20"/>
        <lane id=":J4_5_1" index="1" speed="13.89" length="20.80" shape="210.40,-198.40 189.60,-198.40"/>
    </edge>
    <edge id=":J4_7" function="internal">
        <lane id=":J4_7_0" index="0" speed="9.26" length="6.96" shape="210.40,-198.40 205.15,-199.15 203.73,-200.00"/>
    </edge>
    <edge id=":J4_17" function="internal">
        <lane id=":J4_17_0" index="0" speed="9.26" length="12.40" shape="203.73,-200.00 201.40,-201.40 199.15,-205.15 198.40,-210.40"/>
    </edge>
    <edge id=":J4_8" function="internal">
        <lane id=":J4_8_0" index="0" speed="6.51" length="9.03" shape="204.80,-210.40 205.15,-207.95 206.20,-206.20 207.95,-205.15 210.40,-204.80"/>
    </edge>
    <edge id=":J4_9" function="internal">
        <lane id=":J4_9_0" index="0" speed="13.89" length="20.80" shape="204.80,-210.40 204.80,-189.60"/>
        <lane id=":J4_9_1" index="1" speed="13.89" length="20.80" shape="201.60,-210.40 201.60,-189.60"/>
    </edge>
    <edge id=":J4_11" function="internal">
        <lane id=":J4_11_0" index="0" speed="9.26" length="6.96" shape="201.60,-210.40 200.85,-205.15 200.00,-203.73"/>
    </edge>
    <edge id=":J4_18" function="internal">
        <lane id=":J4_18_0" index="0" speed="9.26" length="12.40" shape="200.00,-203.73 198.60,-201.40 194.85,-199.15 189.60,-198.40"/>
    </edge>
    <edge id=":J4_12" function="internal">
        <lane id=":J4_12_0" index="0" speed="6.51" length="9.03" shape="189.60,-204.80 192.05,-205.15 193.80,-206.20 194.85,-207.95 195.20,-210.40"/>
    </edge>
    <edge id=":J4_13" function="internal">
        <lane id=":J4_13_0" index="0" speed="13.89" length="20.80" shape="189.60,-204.80 210.40,-204.80"/>
        <lane id=":J4_13_1" index="1" speed="13.89" length="20.80" shape="189.60,-201.60 210.40,-201.60"/>
    </edge>
    <edge id=":J4_15" function="internal">
        <lane id=":J4_15_0" index="0" speed="9.26" length="6.96" shape="189.60,-201.60 194.85,-200.85 196.27,-200.00"/>
    </edge>
    <edge id=":J4_19" function="internal">
        <lane id=":J4_19_0" index="0" speed="9.26" length="12.40" shape="196.27,-200.00 198.60,-198.60 200.85,-194.85 201.60,-189.60"/>
    </edge>
    <edge id=":J5_0" function="internal">
        <lane id=":J5_0_0" index="0" speed="6.51" length="9.03" shape="395.20,-189.60 394.85,-192.05 393.80,-193.80 392.05,-194.85 389.60,-195.20"/>
    </edge>
    <edge id=":J5_1" function="internal">
        <lane id=":J5_1_0" index="0" speed="13.89" length="20.80" shape="395.20,-189.60 395.20,-210.40"/>
        <lane id=":J5_1_1" index="1" speed="13.89" length="20.80" shape="398.40,-189.60 398.40,-210.40"/>
    </edge>
    <edge id=":J5_3" function="internal">
        <lane id=":J5_3_0" index="0" speed="9.26" length="6.96" shape="398.40,-189.60 399.15,-194.85 400.00,-196.27"/>
    </edge>
    <edge id=":J5_16" function="internal">
        <lane id=":J5_16_0" index="0" speed="9.26" length="12.40" shape="400.00,-196.27 401.40,-198.60 405.15,-200.85 410.40,-201.60"/>
    </edge>
    <edge id=":J5_4" function="internal">
        <lane id=":J5_4_0" index="0" speed="6.51" length="9.03" shape="410.40,-195.20 407.95,-194.85 406.20,-193.80 405.15,-192.05 404.80,-189.60"/>
    </edge>
    <edge id=":J5_5" function="internal">
        <lane id=":J5_5_0" index="0" speed="13.89" length="20.80" shape="410.40,-195.20 389.60,-195.20"/>
        <lane id=":J5_5_1" index="1" speed="13.89" length="20.80" shape="410.40,-198.40 389.60,-198.40"/>
    </edge>
    <edge id=":J5_7" function="internal">
        <lane id=":J5_7_0" index="0" speed="9.26" length="6.96" shape="410.40,-198.40 405.15,-199.15 403.73,-200.00"/>
    </edge>
    <edge id=":J5_17" function="internal">
        <lane id=":J5_17_0" index="0" speed="9.26" length="12.40" shape="403.73,-200.00 401.40,-201.40 399.15,-205.15 398.40,-210.40"/>
    </edge>
    <edge id=":J5_8" function="internal">
        <lane id=":J5_8_0" index="0" speed="6.51" length="9.03" shape="404.80,-210.40 405.15,-207.95 406.20,-206.20 407.95,-205.15 410.40,-204.80"/>
    </edge>
    <edge id=":J5_9" function="internal">
        <lane id=":J5_9_0" index="0" speed="13.89" length="20.80" shape="404.80,-210.40 404.80,-189.60"/>
        <lane id=":J5_9_1" index="1" speed="13.89" length="20.80" shape="401.60,-210.40 401.60,-189.60"/>
    </edge>
    <edge id=":J5_11" function="internal">
        <lane id=":J5_11_0" index="0" speed="9.26" length="6.96" shape="401.60,-210.40 400.85,-205.15 400.00,-203.73"/>
    </edge>
    <edge id=":J5_18" function="internal">
        <lane id=":J5_18_0" index="0" speed="9.26" length="12.40" shape="400.00,-203.73 398.60,-201.40 394.85,-199.15 389.60,-198.40"/>
    </edge>
    <edge id=":J5_12" function="internal">
        <lane id=":J5_12_0" index="0" speed="6.51" length="9.03" shape="389.60,-204.80 392.05,-205.15 393.80,-206.20 394.85,-207.95 395.20,-210.40"/>
    </edge>
    <edge id=":J5_13" function="internal">
        <lane id=":J5_13_0" index="0" speed="13.89" length="20.80" shape="389.60,-204.80 410.40,-204.80"/>
        <lane id=":J5_13_1" index="1" speed="13.89" length="20.80" shape="389.60,-201.60 410.40,-201.60"/>
    </edge>
    <edge id=":J5_15" function="internal">
        <lane id=":J5_15_0" index="0" speed="9.26" length="6.96" shape="389.60,-201.60 394.85,-200.85 396.27,-200.00"/>
    </edge>
    <edge id=":J5_19" function="internal">
        <lane id=":J5_19_0" index="0" speed="9.26" length="12.40" shape="396.27,-200.00 398.60,-198.60 400.85,-194.85 401.60,-189.60"/>
    </edge>

    <edge id="-E1" from="J2" to="J1" priority="-1">
        <lane id="-E1_0" index="0" speed="13.89" length="179.20" shape="389.60,4.80 210.40,4.80"/>
        <lane id="-E1_1" index="1" speed="13.89" length="179.20" shape="389.60,1.60 210.40,1.60"/>
    </edge>
    <edge id="-E3" from="J4" to="J1" priority="-1">
        <lane id="-E3_0" index="0" speed="13.89" length="179.20" shape="204.80,-189.60 204.80,-10.40"/>
        <lane id="-E3_1" index="1" speed="13.89" length="179.20" shape="201.60,-189.60 201.60,-10.40"/>
    </edge>
    <edge id="-E4" from="J5" to="J4" priority="-1">
        <lane id="-E4_0" index="0" speed="13.89" length="179.20" shape="389.60,-195.20 210.40,-195.20"/>
        <lane id="-E4_1" index="1" speed="13.89" length="179.20" shape="389.60,-198.40 210.40,-198.40"/>
    </edge>
    <edge id="-E5" from="J2" to="J5" priority="-1">
        <lane id="-E5_0" index="0" speed="13.89" length="179.20" shape="395.20,-10.40 395.20,-189.60"/>
        <lane id="-E5_1" index="1" speed="13.89" length="179.20" shape="398.40,-10.40 398.40,-189.60"/>
    </edge>
    <edge id="E1" from="J1" to="J2" priority="-1">
        <lane id="E1_0" index="0" speed="13.89" length="179.20" shape="210.40,-4.80 389.60,-4.80"/>
        <lane id="E1_1" index="1" speed="13.89" length="179.20" shape="210.40,-1.60 389.60,-1.60"/>
    </edge>
    <edge id="E3" from="J1" to="J4" priority="-1">
        <lane id="E3_0" index="0" speed="13.89" length="179.20" shape="195.20,-10.40 195.20,-189.60"/>
        <lane id="E3_1" index="1" speed="13.89" length="179.20" shape="198.40,-10.40 198.40,-189.60"/>
    </edge>
    <edge id="E4" from="J4" to="J5" priority="-1">
        <lane id="E4_0" index="0" speed="13.89" length="179.20" shape="210.40,-204.80 389.60,-204.80"/>
        <lane id="E4_1" index="1" speed="13.89" length="179.20" shape="210.40,-201.60 389.60,-201.60"/>
    </edge>
    <edge id="E5" from="J5" to="J2" priority="-1">
        <lane id="E5_0" index="0" speed="13.89" length="179.20" shape="404.80,-189.60 404.80,-10.40"/>
        <lane id="E5_1" index="1" speed="13.89" length="179.20" shape="401.60,-189.60 401.60,-10.40"/>
    </edge>
    <edge id="in1" from="J11" to="J1" priority="-1">
        <lane id="in1_0" index="0" speed="13.89" length="189.60" shape="195.20,200.00 195.20,10.40"/>
        <lane id="in1_1" index="1" speed="13.89" length="189.60" shape="198.40,200.00 198.40,10.40"/>
    </edge>
    <edge id="in2" from="J12" to="J2" priority="-1">
        <lane id="in2_0" index="0" speed="13.89" length="189.60" shape="395.20,200.00 395.20,10.40"/>
        <lane id="in2_1" index="1" speed="13.89" length="189.60" shape="398.40,200.00 398.40,10.40"/>
    </edge>
    <edge id="in3" from="J3" to="J2" priority="-1">
        <lane id="in3_0" index="0" speed="13.89" length="189.60" shape="600.00,4.80 410.40,4.80"/>
        <lane id="in3_1" index="1" speed="13.89" length="189.60" shape="600.00,1.60 410.40,1.60"/>
    </edge>
    <edge id="in4" from="J14" to="J5" priority="-1">
        <lane id="in4_0" index="0" speed="13.89" length="189.60" shape="600.00,-195.20 410.40,-195.20"/>
        <lane id="in4_1" index="1" speed="13.89" length="189.60" shape="600.00,-198.40 410.40,-198.40"/>
    </edge>
    <edge id="in5" from="J13" to="J5" priority="-1">
        <lane id="in5_0" index="0" speed="13.89" length="189.60" shape="404.80,-400.00 404.80,-210.40"/>
        <lane id="in5_1" index="1" speed="13.89" length="189.60" shape="401.60,-400.00 401.60,-210.40"/>
    </edge>
    <edge id="in6" from="J10" to="J4" priority="-1">
        <lane id="in6_0" index="0" speed="13.89" length="189.60" shape="204.80,-400.00 204.80,-210.40"/>
        <lane id="in6_1" index="1" speed="13.89" length="189.60" shape="201.60,-400.00 201.60,-210.40"/>
    </edge>
    <edge id="in7" from="J9" to="J4" priority="-1">
        <lane id="in7_0" index="0" speed="13.89" length="189.60" shape="0.00,-204.80 189.60,-204.80"/>
        <lane id="in7_1" index="1" speed="13.89" length="189.60" shape="0.00,-201.60 189.60,-201.60"/>
    </edge>
    <edge id="in8" from="J0" to="J1" priority="-1">
        <lane id="in8_0" index="0" speed="13.89" length="189.60" shape="0.00,-4.80 189.60,-4.80"/>
        <lane id="in8_1" index="1" speed="13.89" length="189.60" shape="0.00,-1.60 189.60,-1.60"/>
    </edge>
    <edge id="out1" from="J1" to="J11" priority="-1">
        <lane id="out1_0" index="0" speed="13.89" length="189.60" shape="204.80,10.40 204.80,200.00"/>
        <lane id="out1_1" index="1" speed="13.89" length="189.60" shape="201.60,10.40 201.60,200.00"/>
    </edge>
    <edge id="out2" from="J2" to="J12" priority="-1">
        <lane id="out2_0" index="0" speed="13.89" length="189.60" shape="404.80,10.40 404.80,200.00"/>
        <lane id="out2_1" index="1" speed="13.89" length="189.60" shape="401.60,10.40 401.60,200.00"/>
    </edge>
    <edge id="out3" from="J2" to="J3" priority="-1">
        <lane id="out3_0" index="0" speed="13.89" length="189.60" shape="410.40,-4.80 600.00,-4.80"/>
        <lane id="out3_1" index="1" speed="13.89" length="189.60" shape="410.40,-1.60 600.00,-1.60"/>
    </edge>
    <edge id="out4" from="J5" to="J14" priority="-1">
        <lane id="out4_0" index="0" speed="13.89" length="189.60" shape="410.40,-204.80 600.00,-204.80"/>
        <lane id="out4_1" index="1" speed="13.89" length="189.60" shape="410.40,-201.60 600.00,-201.60"/>
    </edge>
    <edge id="out5" from="J5" to="J13" priority="-1">
        <lane id="out5_0" index="0" speed="13.89" length="189.60" shape="395.20,-210.40 395.20,-400.00"/>
        <lane id="out5_1" index="1" speed="13.89" length="189.60" shape="398.40,-210.40 398.40,-400.00"/>
    </edge>
    <edge id="out6" from="J4" to="J10" priority="-1">
        <lane id="out6_0" index="0" speed="13.89" length="189.60" shape="195.20,-210.40 195.20,-400.00"/>
        <lane id="out6_1" index="1" speed="13.89" length="189.60" shape="198.40,-210.40 198.40,-400.00"/>
    </edge>
    <edge id="out7" from="J4" to="J9" priority="-1">
        <lane id="out7_0" index="0" speed="13.89" length="189.60" shape="189.60,-195.20 0.00,-195.20"/>
        <lane id="out7_1" index="1" speed="13.89" length="189.60" shape="189.60,-198.40 0.00,-198.40"/>
    </edge>
    <edge id="out8" from="J1" to="J0" priority="-1">
        <lane id="out8_0" index="0" speed="13.89" length="189.60" shape="189.60,4.80 0.00,4.80"/>
        <lane id="out8_1" index="1" speed="13.89" length="189.60" shape="189.60,1.60 0.00,1.60"/>
    </edge>

    <tlLogic id="J1" type="static" programID="0" offset="0">
        <phase duration="42" state="GGGgrrrrGGGgrrrr"/>
        <phase duration="3"  state="yyyyrrrryyyyrrrr"/>
        <phase duration="42" state="rrrrGGGgrrrrGGGg"/>
        <phase duration="3"  state="rrrryyyyrrrryyyy"/>
    </tlLogic>
    <tlLogic id="J2" type="static" programID="0" offset="0">
        <phase duration="42" state="GGGgrrrrGGGgrrrr"/>
        <phase duration="3"  state="yyyyrrrryyyyrrrr"/>
        <phase duration="42" state="rrrrGGGgrrrrGGGg"/>
        <phase duration="3"  state="rrrryyyyrrrryyyy"/>
    </tlLogic>
    <tlLogic id="J4" type="static" programID="0" offset="0">
        <phase duration="42" state="GGGgrrrrGGGgrrrr"/>
        <phase duration="3"  state="yyyyrrrryyyyrrrr"/>
        <phase duration="42" state="rrrrGGGgrrrrGGGg"/>
        <phase duration="3"  state="rrrryyyyrrrryyyy"/>
    </tlLogic>
    <tlLogic id="J5" type="static" programID="0" offset="0">
        <phase duration="42" state="GGGgrrrrGGGgrrrr"/>
        <phase duration="3"  state="yyyyrrrryyyyrrrr"/>
        <phase duration="42" state="rrrrGGGgrrrrGGGg"/>
        <phase duration="3"  state="rrrryyyyrrrryyyy"/>
    </tlLogic>

    <junction id="J0" type="dead_end" x="0.00" y="0.00" incLanes="out8_0 out8_1" intLanes="" shape="0.00,0.00 0.00,6.40 0.00,0.00"/>
    <junction id="J1" type="traffic_light" x="200.00" y="0.00" incLanes="in1_0 in1_1 -E1_0 -E1_1 -E3_0 -E3_1 in8_0 in8_1" intLanes=":J1_0_0 :J1_1_0 :J1_1_1 :J1_16_0 :J1_4_0 :J1_5_0 :J1_5_1 :J1_17_0 :J1_8_0 :J1_9_0 :J1_9_1 :J1_18_0 :J1_12_0 :J1_13_0 :J1_13_1 :J1_19_0" shape="193.60,10.40 206.40,10.40 206.84,8.18 207.40,7.40 208.18,6.84 209.18,6.51 210.40,6.40 210.40,-6.40 208.18,-6.84 207.40,-7.40 206.84,-8.18 206.51,-9.18 206.40,-10.40 193.60,-10.40 193.16,-8.18 192.60,-7.40 191.82,-6.84 190.82,-6.51 189.60,-6.40 189.60,6.40 191.82,6.84 192.60,7.40 193.16,8.18 193.49,9.18">
        <request index="0"  response="0000000000000000" foes="0000000001100000" cont="0"/>
        <request index="1"  response="1000000010000000" foes="1111100011100000" cont="0"/>
        <request index="2"  response="1000000010000000" foes="1111100011100000" cont="0"/>
        <request index="3"  response="1000011010000000" foes="1110011011100000" cont="1"/>
        <request index="4"  response="0000011000000000" foes="0000011000000000" cont="0"/>
        <request index="5"  response="0000111000001111" foes="1000111000001111" cont="0"/>
        <request index="6"  response="0000111000001111" foes="1000111000001111" cont="0"/>
        <request index="7"  response="0110111000001110" foes="0110111000001110" cont="1"/>
        <request index="8"  response="0000000000000000" foes="0110000000000000" cont="0"/>
        <request index="9"  response="1000000010000000" foes="1110000011111000" cont="0"/>
        <request index="10" response="1000000010000000" foes="1110000011111000" cont="0"/>
        <request index="11" response="1000000010000110" foes="1110000011100110" cont="1"/>
        <request index="12" response="0000000000000110" foes="0000000000000110" cont="0"/>
        <request index="13" response="0000111100001110" foes="0000111110001110" cont="0"/>
        <request index="14" response="0000111100001110" foes="0000111110001110" cont="0"/>
        <request index="15" response="0000111001101110" foes="0000111001101110" cont="1"/>
    </junction>
    <junction id="J10" type="dead_end" x="200.00" y="-400.00" incLanes="out6_0 out6_1" intLanes="" shape="200.00,-400.00 193.60,-400.00 200.00,-400.00"/>
    <junction id="J11" type="dead_end" x="200.00" y="200.00" incLanes="out1_0 out1_1" intLanes="" shape="200.00,200.00 206.40,200.00 200.00,200.00"/>
    <junction id="J12" type="dead_end" x="400.00" y="200.00" incLanes="out2_0 out2_1" intLanes="" shape="400.00,200.00 406.40,200.00 400.00,200.00"/>
    <junction id="J13" type="dead_end" x="400.00" y="-400.00" incLanes="out5_0 out5_1" intLanes="" shape="400.00,-400.00 393.60,-400.00 400.00,-400.00"/>
    <junction id="J14" type="dead_end" x="600.00" y="-200.00" incLanes="out4_0 out4_1" intLanes="" shape="600.00,-200.00 600.00,-206.40 600.00,-200.00"/>
    <junction id="J2" type="traffic_light" x="400.00" y="0.00" incLanes="in2_0 in2_1 in3_0 in3_1 E5_0 E5_1 E1_0 E1_1" intLanes=":J2_0_0 :J2_1_0 :J2_1_1 :J2_16_0 :J2_4_0 :J2_5_0 :J2_5_1 :J2_17_0 :J2_8_0 :J2_9_0 :J2_9_1 :J2_18_0 :J2_12_0 :J2_13_0 :J2_13_1 :J2_19_0" shape="393.60,10.40 406.40,10.40 406.84,8.18 407.40,7.40 408.18,6.84 409.18,6.51 410.40,6.40 410.40,-6.40 408.18,-6.84 407.40,-7.40 406.84,-8.18 406.51,-9.18 406.40,-10.40 393.60,-10.40 393.16,-8.18 392.60,-7.40 391.82,-6.84 390.82,-6.51 389.60,-6.40 389.60,6.40 391.82,6.84 392.60,7.40 393.16,8.18 393.49,9.18">
        <request index="0"  response="0000000000000000" foes="0000000001100000" cont="0"/>
        <request index="1"  response="1000000010000000" foes="1111100011100000" cont="0"/>
        <request index="2"  response="1000000010000000" foes="1111100011100000" cont="0"/>
        <request index="3"  response="1000011010000000" foes="1110011011100000" cont="1"/>
        <request index="4"  response="0000011000000000" foes="0000011000000000" cont="0"/>
        <request index="5"  response="0000111000001111" foes="1000111000001111" cont="0"/>
        <request index="6"  response="0000111000001111" foes="1000111000001111" cont="0"/>
        <request index="7"  response="0110111000001110" foes="0110111000001110" cont="1"/>
        <request index="8"  response="0000000000000000" foes="0110000000000000" cont="0"/>
        <request index="9"  response="1000000010000000" foes="1110000011111000" cont="0"/>
        <request index="10" response="1000000010000000" foes="1110000011111000" cont="0"/>
        <request index="11" response="1000000010000110" foes="1110000011100110" cont="1"/>
        <request index="12" response="0000000000000110" foes="0000000000000110" cont="0"/>
        <request index="13" response="0000111100001110" foes="0000111110001110" cont="0"/>
        <request index="14" response="0000111100001110" foes="0000111110001110" cont="0"/>
        <request index="15" response="0000111001101110" foes="0000111001101110" cont="1"/>
    </junction>
    <junction id="J3" type="dead_end" x="600.00" y="0.00" incLanes="out3_0 out3_1" intLanes="" shape="600.00,0.00 600.00,-6.40 600.00,0.00"/>
    <junction id="J4" type="traffic_light" x="200.00" y="-200.00" incLanes="E3_0 E3_1 -E4_0 -E4_1 in6_0 in6_1 in7_0 in7_1" intLanes=":J4_0_0 :J4_1_0 :J4_1_1 :J4_16_0 :J4_4_0 :J4_5_0 :J4_5_1 :J4_17_0 :J4_8_0 :J4_9_0 :J4_9_1 :J4_18_0 :J4_12_0 :J4_13_0 :J4_13_1 :J4_19_0" shape="193.60,-189.60 206.40,-189.60 206.84,-191.82 207.40,-192.60 208.18,-193.16 209.18,-193.49 210.40,-193.60 210.40,-206.40 208.18,-206.84 207.40,-207.40 206.84,-208.18 206.51,-209.18 206.40,-210.40 193.60,-210.40 193.16,-208.18 192.60,-207.40 191.82,-206.84 190.82,-206.51 189.60,-206.40 189.60,-193.60 191.82,-193.16 192.60,-192.60 193.16,-191.82 193.49,-190.82">
        <request index="0"  response="0000000000000000" foes="0000000001100000" cont="0"/>
        <request index="1"  response="1000000010000000" foes="1111100011100000" cont="0"/>
        <request index="2"  response="1000000010000000" foes="1111100011100000" cont="0"/>
        <request index="3"  response="1000011010000000" foes="1110011011100000" cont="1"/>
        <request index="4"  response="0000011000000000" foes="0000011000000000" cont="0"/>
        <request index="5"  response="0000111000001111" foes="1000111000001111" cont="0"/>
        <request index="6"  response="0000111000001111" foes="1000111000001111" cont="0"/>
        <request index="7"  response="0110111000001110" foes="0110111000001110" cont="1"/>
        <request index="8"  response="0000000000000000" foes="0110000000000000" cont="0"/>
        <request index="9"  response="1000000010000000" foes="1110000011111000" cont="0"/>
        <request index="10" response="1000000010000000" foes="1110000011111000" cont="0"/>
        <request index="11" response="1000000010000110" foes="1110000011100110" cont="1"/>
        <request index="12" response="0000000000000110" foes="0000000000000110" cont="0"/>
        <request index="13" response="0000111100001110" foes="0000111110001110" cont="0"/>
        <request index="14" response="0000111100001110" foes="0000111110001110" cont="0"/>
        <request index="15" response="0000111001101110" foes="0000111001101110" cont="1"/>
    </junction>