<?xml version="1.0" encoding="UTF-8"?>

<!-- generated on 2021-09-30 20:22:03 by Eclipse SUMO netedit Version 1.9.2
<configuration xmlns:xsi="http://www.w3.org/2001/XMLSchema-instance" xsi:noNamespaceSchemaLocation="http://sumo.dlr.de/xsd/netconvertConfiguration.xsd">

    <input>
        <sumo-net-file value="shortlong.net.xml"/>
    </input>

    <output>
        <output-file value="shortlong.net.xml"/>
    </output>

    <processing>
        <geometry.min-radius.fix.railways value="false"/>
        <geometry.max-grade.fix value="false"/>
        <offset.disable-normalization value="true"/>
        <lefthand value="false"/>
    </processing>

    <junctions>
        <no-turnarounds value="true"/>
        <junctions.corner-detail value="5"/>
        <junctions.limit-turn-speed value="5.5"/>
        <rectangular-lane-cut value="false"/>
    </junctions>

    <pedestrian>
        <walkingareas value="false"/>
    </pedestrian>

    <netedit>
        <route-files value="/usr/local/Cellar/sumo/shortlong2/shortlong.rou.xml"/>
    </netedit>

    <report>
        <aggregate-warnings value="5"/>
    </report>

</configuration>
-->

<routes xmlns:xsi="http://www.w3.org/2001/XMLSchema-instance" xsi:noNamespaceSchemaLocation="http://sumo.dlr.de/xsd/routes_file.xsd">
    <vType id="noVar" speedFactor="1.0" speedDev="0.0"/>


    <flow id="L1" type="noVar" from="L11" to="L13" begin="0" end="1800" number="300"/>
    <flow id="L2" type="noVar" from="L21" to="L23" begin="0" end="1800" number="300"/>
    <flow id="R1" type="noVar" from="R11" to="R13" begin="0" end="1800" number="300"/>
    <flow id="R2" type="noVar" from="R21" to="R23" begin="0" end="1800" number="300"/>
    <flow id="U1" type="noVar" from="U11" to="U13" begin="0" end="1800" number="300"/>
    <flow id="U2" type="noVar" from="U21" to="U23" begin="0" end="1800" number="300"/>
    <flow id="D1" type="noVar" from="D11" to="D13" begin="0" end="1800" number="300"/>
    <flow id="D2" type="noVar" from="D21" to="D23" begin="0" end="1800" number="300"/>
    
</routes>
