<?xml version="1.0" encoding="UTF-8"?>
<routes xmlns:xsi="http://www.w3.org/2001/XMLSchema-instance" xsi:noNamespaceSchemaLocation="http://sumo.dlr.de/xsd/routes_file.xsd">

<vType id="noVar" speedFactor="1.0" speedDev="0.0"/>
<trip type="noVar" depart="0" id="L1.0" from="L11" to="L13"/>
<trip type="noVar" depart="0" id="L2.0" from="L21" to="L23"/>
<trip type="noVar" depart="0" id="R1.0" from="R11" to="R13"/>
<trip type="noVar" depart="0" id="R2.0" from="R21" to="R23"/>
<trip type="noVar" depart="0" id="U1.0" from="U11" to="U13"/>
<trip type="noVar" depart="0" id="U2.0" from="U21" to="U23"/>
<trip type="noVar" depart="0" id="D1.0" from="D11" to="D13"/>
<trip type="noVar" depart="0" id="D2.0" from="D21" to="D23"/>
<trip type="noVar" depart="6" id="L1.1" from="L11" to="L13"/>
<trip type="noVar" depart="6" id="L2.1" from="L21" to="L23"/>
<trip type="noVar" depart="6" id="R1.1" from="R11" to="R13"/>
<trip type="noVar" depart="6" id="R2.1" from="R21" to="R23"/>
<trip type="noVar" depart="6" id="U1.1" from="U11" to="U13"/>
<trip type="noVar" depart="6" id="U2.1" from="U21" to="U23"/>
<trip type="noVar" depart="6" id="D1.1" from="D11" to="D13"/>
<trip type="noVar" depart="6" id="D2.1" from="D21" to="D23"/>
<trip type="noVar" depart="12" id="L1.2" from="L11" to="L13"/>
<trip type="noVar" depart="12" id="L2.2" from="L21" to="L23"/>
<trip type="noVar" depart="12" id="R1.2" from="R11" to="R13"/>
<trip type="noVar" depart="12" id="R2.2" from="R21" to="R23"/>
<trip type="noVar" depart="12" id="U1.2" from="U11" to="U13"/>
<trip type="noVar" depart="12" id="U2.2" from="U21" to="U23"/>
<trip type="noVar" depart="12" id="D1.2" from="D11" to="D13"/>
<trip type="noVar" depart="12" id="D2.2" from="D21" to="D23"/>
<trip type="noVar" depart="18" id="L1.3" from="L11" to="L13"/>
<trip type="noVar" depart="18" id="L2.3" from="L21" to="L23"/>
<trip type="noVar" depart="18" id="R1.3" from="R11" to="R13"/>
<trip type="noVar" depart="18" id="R2.3" from="R21" to="R23"/>
<trip type="noVar" depart="18" id="U1.3" from="U11" to="U13"/>
<trip type="noVar" depart="18" id="U2.3" from="U21" to="U23"/>
<trip type="noVar" depart="18" id="D1.3" from="D11" to="D13"/>
<trip type="noVar" depart="18" id="D2.3" from="D21" to="D23"/>
<trip type="noVar" depart="24" id="L1.4" from="L11" to="L13"/>
<trip type="noVar" depart="24" id="L2.4" from="L21" to="L23"/>
<trip type="noVar" depart="24" id="R1.4" from="R11" to="R13"/>
<trip type="noVar" depart="24" id="R2.4" from="R21" to="R23"/>
<trip type="noVar" depart="24" id="U1.4" from="U11" to="U13"/>
<trip type="noVar" depart="24" id="U2.4" from="U21" to="U23"/>
<trip type="noVar" depart="24" id="D1.4" from="D11" to="D13"/>
<trip type="noVar" depart="24" id="D2.4" from="D21" to="D23"/>
<trip type="noVar" depart="30" id="L1.5" from="L11" to="L13"/>
<trip type="noVar" depart="30" id="L2.5" from="L21" to="L23"/>
<trip type="noVar" depart="30" id="R1.5" from="R11" to="R13"/>
<trip type="noVar" depart="30" id="R2.5" from="R21" to="R23"/>
<trip type="noVar" depart="30" id="U1.5" from="U11" to="U13"/>
<trip type="noVar" depart="30" id="U2.5" from="U21" to="U23"/>
<trip type="noVar" depart="30" id="D1.5" from="D11" to="D13"/>
<trip type="noVar" depart="30" id="D2.5" from="D21" to="D23"/>
<trip type="noVar" depart="36" id="L1.6" from="L11" to="L13"/>
<trip type="noVar" depart="36" id="L2.6" from="L21" to="L23"/>
<trip type="noVar" depart="36" id="R1.6" from="R11" to="R13"/>
<trip type="noVar" depart="36" id="R2.6" from="R21" to="R23"/>
<trip type="noVar" depart="36" id="U1.6" from="U11" to="U13"/>
<trip type="noVar" depart="36" id="U2.6" from="U21" to="U23"/>
<trip type="noVar" depart="36" id="D1.6" from="D11" to="D13"/>
<trip type="noVar" depart="36" id="D2.6" from="D21" to="D23"/>
<trip type="noVar" depart="42" id="L1.7" from="L11" to="L13"/>
<trip type="noVar" depart="42" id="L2.7" from="L21" to="L23"/>
<trip type="noVar" depart="42" id="R1.7" from="R11" to="R13"/>
<trip type="noVar" depart="42" id="R2.7" from="R21" to="R23"/>
<trip type="noVar" depart="42" id="U1.7" from="U11" to="U13"/>
<trip type="noVar" depart="42" id="U2.7" from="U21" to="U23"/>
<trip type="noVar" depart="42" id="D1.7" from="D11" to="D13"/>
<trip type="noVar" depart="42" id="D2.7" from="D21" to="D23"/>
<trip type="noVar" depart="48" id="L1.8" from="L11" to="L13"/>
<trip type="noVar" depart="48" id="L2.8" from="L21" to="L23"/>
<trip type="noVar" depart="48" id="R1.8" from="R11" to="R13"/>
<trip type="noVar" depart="48" id="R2.8" from="R21" to="R23"/>
<trip type="noVar" depart="48" id="U1.8" from="U11" to="U13"/>
<trip type="noVar" depart="48" id="U2.8" from="U21" to="U23"/>
<trip type="noVar" depart="48" id="D1.8" from="D11" to="D13"/>
<trip type="noVar" depart="48" id="D2.8" from="D21" to="D23"/>
<trip type="noVar" depart="54" id="L1.9" from="L11" to="L13"/>
<trip type="noVar" depart="54" id="L2.9" from="L21" to="L23"/>
<trip type="noVar" depart="54" id="R1.9" from="R11" to="R13"/>
<trip type="noVar" depart="54" id="R2.9" from="R21" to="R23"/>
<trip type="noVar" depart="54" id="U1.9" from="U11" to="U13"/>
<trip type="noVar" depart="54" id="U2.9" from="U21" to="U23"/>
<trip type="noVar" depart="54" id="D1.9" from="D11" to="D13"/>
<trip type="noVar" depart="54" id="D2.9" from="D21" to="D23"/>
<trip type="noVar" depart="60" id="L1.10" from="L11" to="L13"/>
<trip type="noVar" depart="60" id="L2.10" from="L21" to="L23"/>
<trip type="noVar" depart="60" id="R1.10" from="R11" to="R13"/>
<trip type="noVar" depart="60" id="R2.10" from="R21" to="R23"/>
<trip type="noVar" depart="60" id="U1.10" from="U11" to="U13"/>
<trip type="noVar" depart="60" id="U2.10" from="U21" to="U23"/>
<trip type="noVar" depart="60" id="D1.10" from="D11" to="D13"/>
<trip type="noVar" depart="60" id="D2.10" from="D21" to="D23"/>
<trip type="noVar" depart="66" id="L1.11" from="L11" to="L13"/>
<trip type="noVar" depart="66" id="L2.11" from="L21" to="L23"/>
<trip type="noVar" depart="66" id="R1.11" from="R11" to="R13"/>
<trip type="noVar" depart="66" id="R2.11" from="R21" to="R23"/>
<trip type="noVar" depart="66" id="U1.11" from="U11" to="U13"/>
<trip type="noVar" depart="66" id="U2.11" from="U21" to="U23"/>
<trip type="noVar" depart="66" id="D1.11" from="D11" to="D13"/>
<trip type="noVar" depart="66" id="D2.11" from="D21" to="D23"/>
<trip type="noVar" depart="72" id="L1.12" from="L11" to="L13"/>
<trip type="noVar" depart="72" id="L2.12" from="L21" to="L23"/>
<trip type="noVar" depart="72" id="R1.12" from="R11" to="R13"/>
<trip type="noVar" depart="72" id="R2.12" from="R21" to="R23"/>
<trip type="noVar" depart="72" id="U1.12" from="U11" to="U13"/>
<trip type="noVar" depart="72" id="U2.12" from="U21" to="U23"/>
<trip type="noVar" depart="72" id="D1.12" from="D11" to="D13"/>
<trip type="noVar" depart="72" id="D2.12" from="D21" to="D23"/>
<trip type="noVar" depart="78" id="L1.13" from="L11" to="L13"/>
<trip type="noVar" depart="78" id="L2.13" from="L21" to="L23"/>
<trip type="noVar" depart="78" id="R1.13" from="R11" to="R13"/>
<trip type="noVar" depart="78" id="R2.13" from="R21" to="R23"/>
<trip type="noVar" depart="78" id="U1.13" from="U11" to="U13"/>
<trip type="noVar" depart="78" id="U2.13" from="U21" to="U23"/>
<trip type="noVar" depart="78" id="D1.13" from="D11" to="D13"/>
<trip type="noVar" depart="78" id="D2.13" from="D21" to="D23"/>
<trip type="noVar" depart="84" id="L1.14" from="L11" to="L13"/>
<trip type="noVar" depart="84" id="L2.14" from="L21" to="L23"/>
<trip type="noVar" depart="84" id="R1.14" from="R11" to="R13"/>
<trip type="noVar" depart="84" id="R2.14" from="R21" to="R23"/>
<trip type="noVar" depart="84" id="U1.14" from="U11" to="U13"/>
<trip type="noVar" depart="84" id="U2.14" from="U21" to="U23"/>
<trip type="noVar" depart="84" id="D1.14" from="D11" to="D13"/>
<trip type="noVar" depart="84" id="D2.14" from="D21" to="D23"/>
<trip type="noVar" depart="90" id="L1.15" from="L11" to="L13"/>
<trip type="noVar" depart="90" id="L2.15" from="L21" to="L23"/>
<trip type="noVar" depart="90" id="R1.15" from="R11" to="R13"/>
<trip type="noVar" depart="90" id="R2.15" from="R21" to="R23"/>
<trip type="noVar" depart="90" id="U1.15" from="U11" to="U13"/>
<trip type="noVar" depart="90" id="U2.15" from="U21" to="U23"/>
<trip type="noVar" depart="90" id="D1.15" from="D11" to="D13"/>
<trip type="noVar" depart="90" id="D2.15" from="D21" to="D23"/>
<trip type="noVar" depart="96" id="L1.16" from="L11" to="L13"/>
<trip type="noVar" depart="96" id="L2.16" from="L21" to="L23"/>
<trip type="noVar" depart="96" id="R1.16" from="R11" to="R13"/>
<trip type="noVar" depart="96" id="R2.16" from="R21" to="R23"/>
<trip type="noVar" depart="96" id="U1.16" from="U11" to="U13"/>
<trip type="noVar" depart="96" id="U2.16" from="U21" to="U23"/>
<trip type="noVar" depart="96" id="D1.16" from="D11" to="D13"/>
<trip type="noVar" depart="96" id="D2.16" from="D21" to="D23"/>
<trip type="noVar" depart="102" id="L1.17" from="L11" to="L13"/>
<trip type="noVar" depart="102" id="L2.17" from="L21" to="L23"/>
<trip type="noVar" depart="102" id="R1.17" from="R11" to="R13"/>
<trip type="noVar" depart="102" id="R2.17" from="R21" to="R23"/>
<trip type="noVar" depart="102" id="U1.17" from="U11" to="U13"/>
<trip type="noVar" depart="102" id="U2.17" from="U21" to="U23"/>
<trip type="noVar" depart="102" id="D1.17" from="D11" to="D13"/>
<trip type="noVar" depart="102" id="D2.17" from="D21" to="D23"/>
<trip type="noVar" depart="108" id="L1.18" from="L11" to="L13"/>
<trip type="noVar" depart="108" id="L2.18" from="L21" to="L23"/>
<trip type="noVar" depart="108" id="R1.18" from="R11" to="R13"/>
<trip type="noVar" depart="108" id="R2.18" from="R21" to="R23"/>
<trip type="noVar" depart="108" id="U1.18" from="U11" to="U13"/>
<trip type="noVar" depart="108" id="U2.18" from="U21" to="U23"/>
<trip type="noVar" depart="108" id="D1.18" from="D11" to="D13"/>
<trip type="noVar" depart="108" id="D2.18" from="D21" to="D23"/>
<trip type="noVar" depart="114" id="L1.19" from="L11" to="L13"/>
<trip type="noVar" depart="114" id="L2.19" from="L21" to="L23"/>
<trip type="noVar" depart="114" id="R1.19" from="R11" to="R13"/>
<trip type="noVar" depart="114" id="R2.19" from="R21" to="R23"/>
<trip type="noVar" depart="114" id="U1.19" from="U11" to="U13"/>
<trip type="noVar" depart="114" id="U2.19" from="U21" to="U23"/>
<trip type="noVar" depart="114" id="D1.19" from="D11" to="D13"/>
<trip type="noVar" depart="114" id="D2.19" from="D21" to="D23"/>
<trip type="noVar" depart="120" id="L1.20" from="L11" to="L13"/>
<trip type="noVar" depart="120" id="L2.20" from="L21" to="L23"/>
<trip type="noVar" depart="120" id="R1.20" from="R11" to="R13"/>
<trip type="noVar" depart="120" id="R2.20" from="R21" to="R23"/>
<trip type="noVar" depart="120" id="U1.20" from="U11" to="U13"/>
<trip type="noVar" depart="120" id="U2.20" from="U21" to="U23"/>
<trip type="noVar" depart="120" id="D1.20" from="D11" to="D13"/>
<trip type="noVar" depart="120" id="D2.20" from="D21" to="D23"/>
<trip type="noVar" depart="126" id="L1.21" from="L11" to="L13"/>
<trip type="noVar" depart="126" id="L2.21" from="L21" to="L23"/>
<trip type="noVar" depart="126" id="R1.21" from="R11" to="R13"/>
<trip type="noVar" depart="126" id="R2.21" from="R21" to="R23"/>
<trip type="noVar" depart="126" id="U1.21" from="U11" to="U13"/>
<trip type="noVar" depart="126" id="U2.21" from="U21" to="U23"/>
<trip type="noVar" depart="126" id="D1.21" from="D11" to="D13"/>
<trip type="noVar" depart="126" id="D2.21" from="D21" to="D23"/>
<trip type="noVar" depart="132" id="L1.22" from="L11" to="L13"/>
<trip type="noVar" depart="132" id="L2.22" from="L21" to="L23"/>
<trip type="noVar" depart="132" id="R1.22" from="R11" to="R13"/>
<trip type="noVar" depart="132" id="R2.22" from="R21" to="R23"/>
<trip type="noVar" depart="132" id="U1.22" from="U11" to="U13"/>
<trip type="noVar" depart="132" id="U2.22" from="U21" to="U23"/>
<trip type="noVar" depart="132" id="D1.22" from="D11" to="D13"/>
<trip type="noVar" depart="132" id="D2.22" from="D21" to="D23"/>
<trip type="noVar" depart="138" id="L1.23" from="L11" to="L13"/>
<trip type="noVar" depart="138" id="L2.23" from="L21" to="L23"/>
<trip type="noVar" depart="138" id="R1.23" from="R11" to="R13"/>
<trip type="noVar" depart="138" id="R2.23" from="R21" to="R23"/>
<trip type="noVar" depart="138" id="U1.23" from="U11" to="U13"/>
<trip type="noVar" depart="138" id="U2.23" from="U21" to="U23"/>
<trip type="noVar" depart="138" id="D1.23" from="D11" to="D13"/>
<trip type="noVar" depart="138" id="D2.23" from="D21" to="D23"/>
<trip type="noVar" depart="144" id="L1.24" from="L11" to="L13"/>
<trip type="noVar" depart="144" id="L2.24" from="L21" to="L23"/>
<trip type="noVar" depart="144" id="R1.24" from="R11" to="R13"/>
<trip type="noVar" depart="144" id="R2.24" from="R21" to="R23"/>
<trip type="noVar" depart="144" id="U1.24" from="U11" to="U13"/>
<trip type="noVar" depart="144" id="U2.24" from="U21" to="U23"/>
<trip type="noVar" depart="144" id="D1.24" from="D11" to="D13"/>
<trip type="noVar" depart="144" id="D2.24" from="D21" to="D23"/>
<trip type="noVar" depart="150" id="L1.25" from="L11" to="L13"/>
<trip type="noVar" depart="150" id="L2.25" from="L21" to="L23"/>
<trip type="noVar" depart="150" id="R1.25" from="R11" to="R13"/>
<trip type="noVar" depart="150" id="R2.25" from="R21" to="R23"/>
<trip type="noVar" depart="150" id="U1.25" from="U11" to="U13"/>
<trip type="noVar" depart="150" id="U2.25" from="U21" to="U23"/>
<trip type="noVar" depart="150" id="D1.25" from="D11" to="D13"/>
<trip type="noVar" depart="150" id="D2.25" from="D21" to="D23"/>
<trip type="noVar" depart="156" id="L1.26" from="L11" to="L13"/>
<trip type="noVar" depart="156" id="L2.26" from="L21" to="L23"/>
<trip type="noVar" depart="156" id="R1.26" from="R11" to="R13"/>
<trip type="noVar" depart="156" id="R2.26" from="R21" to="R23"/>
<trip type="noVar" depart="156" id="U1.26" from="U11" to="U13"/>
<trip type="noVar" depart="156" id="U2.26" from="U21" to="U23"/>
<trip type="noVar" depart="156" id="D1.26" from="D11" to="D13"/>
<trip type="noVar" depart="156" id="D2.26" from="D21" to="D23"/>
<trip type="noVar" depart="162" id="L1.27" from="L11" to="L13"/>
<trip type="noVar" depart="162" id="L2.27" from="L21" to="L23"/>
<trip type="noVar" depart="162" id="R1.27" from="R11" to="R13"/>
<trip type="noVar" depart="162" id="R2.27" from="R21" to="R23"/>
<trip type="noVar" depart="162" id="U1.27" from="U11" to="U13"/>
<trip type="noVar" depart="162" id="U2.27" from="U21" to="U23"/>
<trip type="noVar" depart="162" id="D1.27" from="D11" to="D13"/>
<trip type="noVar" depart="162" id="D2.27" from="D21" to="D23"/>
<trip type="noVar" depart="168" id="L1.28" from="L11" to="L13"/>
<trip type="noVar" depart="168" id="L2.28" from="L21" to="L23"/>
<trip type="noVar" depart="168" id="R1.28" from="R11" to="R13"/>
<trip type="noVar" depart="168" id="R2.28" from="R21" to="R23"/>
<trip type="noVar" depart="168" id="U1.28" from="U11" to="U13"/>
<trip type="noVar" depart="168" id="U2.28" from="U21" to="U23"/>
<trip type="noVar" depart="168" id="D1.28" from="D11" to="D13"/>
<trip type="noVar" depart="168" id="D2.28" from="D21" to="D23"/>
<trip type="noVar" depart="174" id="L1.29" from="L11" to="L13"/>
<trip type="noVar" depart="174" id="L2.29" from="L21" to="L23"/>
<trip type="noVar" depart="174" id="R1.29" from="R11" to="R13"/>
<trip type="noVar" depart="174" id="R2.29" from="R21" to="R23"/>
<trip type="noVar" depart="174" id="U1.29" from="U11" to="U13"/>
<trip type="noVar" depart="174" id="U2.29" from="U21" to="U23"/>
<trip type="noVar" depart="174" id="D1.29" from="D11" to="D13"/>
<trip type="noVar" depart="174" id="D2.29" from="D21" to="D23"/>
<trip type="noVar" depart="180" id="L1.30" from="L11" to="L13"/>
<trip type="noVar" depart="180" id="L2.30" from="L21" to="L23"/>
<trip type="noVar" depart="180" id="R1.30" from="R11" to="R13"/>
<trip type="noVar" depart="180" id="R2.30" from="R21" to="R23"/>
<trip type="noVar" depart="180" id="U1.30" from="U11" to="U13"/>
<trip type="noVar" depart="180" id="U2.30" from="U21" to="U23"/>
<trip type="noVar" depart="180" id="D1.30" from="D11" to="D13"/>
<trip type="noVar" depart="180" id="D2.30" from="D21" to="D23"/>
<trip type="noVar" depart="186" id="L1.31" from="L11" to="L13"/>
<trip type="noVar" depart="186" id="L2.31" from="L21" to="L23"/>
<trip type="noVar" depart="186" id="R1.31" from="R11" to="R13"/>
<trip type="noVar" depart="186" id="R2.31" from="R21" to="R23"/>
<trip type="noVar" depart="186" id="U1.31" from="U11" to="U13"/>
<trip type="noVar" depart="186" id="U2.31" from="U21" to="U23"/>
<trip type="noVar" depart="186" id="D1.31" from="D11" to="D13"/>
<trip type="noVar" depart="186" id="D2.31" from="D21" to="D23"/>
<trip type="noVar" depart="192" id="L1.32" from="L11" to="L13"/>
<trip type="noVar" depart="192" id="L2.32" from="L21" to="L23"/>
<trip type="noVar" depart="192" id="R1.32" from="R11" to="R13"/>
<trip type="noVar" depart="192" id="R2.32" from="R21" to="R23"/>
<trip type="noVar" depart="192" id="U1.32" from="U11" to="U13"/>
<trip type="noVar" depart="192" id="U2.32" from="U21" to="U23"/>
<trip type="noVar" depart="192" id="D1.32" from="D11" to="D13"/>
<trip type="noVar" depart="192" id="D2.32" from="D21" to="D23"/>
<trip type="noVar" depart="198" id="L1.33" from="L11" to="L13"/>
<trip type="noVar" depart="198" id="L2.33" from="L21" to="L23"/>
<trip type="noVar" depart="198" id="R1.33" from="R11" to="R13"/>
<trip type="noVar" depart="198" id="R2.33" from="R21" to="R23"/>
<trip type="noVar" depart="198" id="U1.33" from="U11" to="U13"/>
<trip type="noVar" depart="198" id="U2.33" from="U21" to="U23"/>
<trip type="noVar" depart="198" id="D1.33" from="D11" to="D13"/>
<trip type="noVar" depart="198" id="D2.33" from="D21" to="D23"/>
<trip type="noVar" depart="204" id="L1.34" from="L11" to="L13"/>
<trip type="noVar" depart="204" id="L2.34" from="L21" to="L23"/>
<trip type="noVar" depart="204" id="R1.34" from="R11" to="R13"/>
<trip type="noVar" depart="204" id="R2.34" from="R21" to="R23"/>
<trip type="noVar" depart="204" id="U1.34" from="U11" to="U13"/>
<trip type="noVar" depart="204" id="U2.34" from="U21" to="U23"/>
<trip type="noVar" depart="204" id="D1.34" from="D11" to="D13"/>
<trip type="noVar" depart="204" id="D2.34" from="D21" to="D23"/>
<trip type="noVar" depart="210" id="L1.35" from="L11" to="L13"/>
<trip type="noVar" depart="210" id="L2.35" from="L21" to="L23"/>
<trip type="noVar" depart="210" id="R1.35" from="R11" to="R13"/>
<trip type="noVar" depart="210" id="R2.35" from="R21" to="R23"/>
<trip type="noVar" depart="210" id="U1.35" from="U11" to="U13"/>
<trip type="noVar" depart="210" id="U2.35" from="U21" to="U23"/>
<trip type="noVar" depart="210" id="D1.35" from="D11" to="D13"/>
<trip type="noVar" depart="210" id="D2.35" from="D21" to="D23"/>
<trip type="noVar" depart="216" id="L1.36" from="L11" to="L13"/>
<trip type="noVar" depart="216" id="L2.36" from="L21" to="L23"/>
<trip type="noVar" depart="216" id="R1.36" from="R11" to="R13"/>
<trip type="noVar" depart="216" id="R2.36" from="R21" to="R23"/>
<trip type="noVar" depart="216" id="U1.36" from="U11" to="U13"/>
<trip type="noVar" depart="216" id="U2.36" from="U21" to="U23"/>
<trip type="noVar" depart="216" id="D1.36" from="D11" to="D13"/>
<trip type="noVar" depart="216" id="D2.36" from="D21" to="D23"/>
<trip type="noVar" depart="222" id="L1.37" from="L11" to="L13"/>
<trip type="noVar" depart="222" id="L2.37" from="L21" to="L23"/>
<trip type="noVar" depart="222" id="R1.37" from="R11" to="R13"/>
<trip type="noVar" depart="222" id="R2.37" from="R21" to="R23"/>
<trip type="noVar" depart="222" id="U1.37" from="U11" to="U13"/>
<trip type="noVar" depart="222" id="U2.37" from="U21" to="U23"/>
<trip type="noVar" depart="222" id="D1.37" from="D11" to="D13"/>
<trip type="noVar" depart="222" id="D2.37" from="D21" to="D23"/>
<trip type="noVar" depart="228" id="L1.38" from="L11" to="L13"/>
<trip type="noVar" depart="228" id="L2.38" from="L21" to="L23"/>
<trip type="noVar" depart="228" id="R1.38" from="R11" to="R13"/>
<trip type="noVar" depart="228" id="R2.38" from="R21" to="R23"/>
<trip type="noVar" depart="228" id="U1.38" from="U11" to="U13"/>
<trip type="noVar" depart="228" id="U2.38" from="U21" to="U23"/>
<trip type="noVar" depart="228" id="D1.38" from="D11" to="D13"/>
<trip type="noVar" depart="228" id="D2.38" from="D21" to="D23"/>
<trip type="noVar" depart="234" id="L1.39" from="L11" to="L13"/>
<trip type="noVar" depart="234" id="L2.39" from="L21" to="L23"/>
<trip type="noVar" depart="234" id="R1.39" from="R11" to="R13"/>
<trip type="noVar" depart="234" id="R2.39" from="R21" to="R23"/>
<trip type="noVar" depart="234" id="U1.39" from="U11" to="U13"/>
<trip type="noVar" depart="234" id="U2.39" from="U21" to="U23"/>
<trip type="noVar" depart="234" id="D1.39" from="D11" to="D13"/>
<trip type="noVar" depart="234" id="D2.39" from="D21" to="D23"/>
<trip type="noVar" depart="240" id="L1.40" from="L11" to="L13"/>
<trip type="noVar" depart="240" id="L2.40" from="L21" to="L23"/>
<trip type="noVar" depart="240" id="R1.40" from="R11" to="R13"/>
<trip type="noVar" depart="240" id="R2.40" from="R21" to="R23"/>
<trip type="noVar" depart="240" id="U1.40" from="U11" to="U13"/>
<trip type="noVar" depart="240" id="U2.40" from="U21" to="U23"/>
<trip type="noVar" depart="240" id="D1.40" from="D11" to="D13"/>
<trip type="noVar" depart="240" id="D2.40" from="D21" to="D23"/>
<trip type="noVar" depart="246" id="L1.41" from="L11" to="L13"/>
<trip type="noVar" depart="246" id="L2.41" from="L21" to="L23"/>
<trip type="noVar" depart="246" id="R1.41" from="R11" to="R13"/>
<trip type="noVar" depart="246" id="R2.41" from="R21" to="R23"/>
<trip type="noVar" depart="246" id="U1.41" from="U11" to="U13"/>
<trip type="noVar" depart="246" id="U2.41" from="U21" to="U23"/>
<trip type="noVar" depart="246" id="D1.41" from="D11" to="D13"/>
<trip type="noVar" depart="246" id="D2.41" from="D21" to="D23"/>
<trip type="noVar" depart="252" id="L1.42" from="L11" to="L13"/>
<trip type="noVar" depart="252" id="L2.42" from="L21" to="L23"/>
<trip type="noVar" depart="252" id="R1.42" from="R11" to="R13"/>
<trip type="noVar" depart="252" id="R2.42" from="R21" to="R23"/>
<trip type="noVar" depart="252" id="U1.42" from="U11" to="U13"/>
<trip type="noVar" depart="252" id="U2.42" from="U21" to="U23"/>
<trip type="noVar" depart="252" id="D1.42" from="D11" to="D13"/>
<trip type="noVar" depart="252" id="D2.42" from="D21" to="D23"/>
<trip type="noVar" depart="258" id="L1.43" from="L11" to="L13"/>
<trip type="noVar" depart="258" id="L2.43" from="L21" to="L23"/>
<trip type="noVar" depart="258" id="R1.43" from="R11" to="R13"/>
<trip type="noVar" depart="258" id="R2.43" from="R21" to="R23"/>
<trip type="noVar" depart="258" id="U1.43" from="U11" to="U13"/>
<trip type="noVar" depart="258" id="U2.43" from="U21" to="U23"/>
<trip type="noVar" depart="258" id="D1.43" from="D11" to="D13"/>
<trip type="noVar" depart="258" id="D2.43" from="D21" to="D23"/>
<trip type="noVar" depart="264" id="L1.44" from="L11" to="L13"/>
<trip type="noVar" depart="264" id="L2.44" from="L21" to="L23"/>
<trip type="noVar" depart="264" id="R1.44" from="R11" to="R13"/>
<trip type="noVar" depart="264" id="R2.44" from="R21" to="R23"/>
<trip type="noVar" depart="264" id="U1.44" from="U11" to="U13"/>
<trip type="noVar" depart="264" id="U2.44" from="U21" to="U23"/>
<trip type="noVar" depart="264" id="D1.44" from="D11" to="D13"/>
<trip type="noVar" depart="264" id="D2.44" from="D21" to="D23"/>
<trip type="noVar" depart="270" id="L1.45" from="L11" to="L13"/>
<trip type="noVar" depart="270" id="L2.45" from="L21" to="L23"/>
<trip type="noVar" depart="270" id="R1.45" from="R11" to="R13"/>
<trip type="noVar" depart="270" id="R2.45" from="R21" to="R23"/>
<trip type="noVar" depart="270" id="U1.45" from="U11" to="U13"/>
<trip type="noVar" depart="270" id="U2.45" from="U21" to="U23"/>
<trip type="noVar" depart="270" id="D1.45" from="D11" to="D13"/>
<trip type="noVar" depart="270" id="D2.45" from="D21" to="D23"/>
<trip type="noVar" depart="276" id="L1.46" from="L11" to="L13"/>
<trip type="noVar" depart="276" id="L2.46" from="L21" to="L23"/>
<trip type="noVar" depart="276" id="R1.46" from="R11" to="R13"/>
<trip type="noVar" depart="276" id="R2.46" from="R21" to="R23"/>
<trip type="noVar" depart="276" id="U1.46" from="U11" to="U13"/>
<trip type="noVar" depart="276" id="U2.46" from="U21" to="U23"/>
<trip type="noVar" depart="276" id="D1.46" from="D11" to="D13"/>
<trip type="noVar" depart="276" id="D2.46" from="D21" to="D23"/>
<trip type="noVar" depart="282" id="L1.47" from="L11" to="L13"/>
<trip type="noVar" depart="282" id="L2.47" from="L21" to="L23"/>
<trip type="noVar" depart="282" id="R1.47" from="R11" to="R13"/>
<trip type="noVar" depart="282" id="R2.47" from="R21" to="R23"/>
<trip type="noVar" depart="282" id="U1.47" from="U11" to="U13"/>
<trip type="noVar" depart="282" id="U2.47" from="U21" to="U23"/>
<trip type="noVar" depart="282" id="D1.47" from="D11" to="D13"/>
<trip type="noVar" depart="282" id="D2.47" from="D21" to="D23"/>
<trip type="noVar" depart="288" id="L1.48" from="L11" to="L13"/>
<trip type="noVar" depart="288" id="L2.48" from="L21" to="L23"/>
<trip type="noVar" depart="288" id="R1.48" from="R11" to="R13"/>
<trip type="noVar" depart="288" id="R2.48" from="R21" to="R23"/>
<trip type="noVar" depart="288" id="U1.48" from="U11" to="U13"/>
<trip type="noVar" depart="288" id="U2.48" from="U21" to="U23"/>
<trip type="noVar" depart="288" id="D1.48" from="D11" to="D13"/>
<trip type="noVar" depart="288" id="D2.48" from="D21" to="D23"/>
<trip type="noVar" depart="294" id="L1.49" from="L11" to="L13"/>
<trip type="noVar" depart="294" id="L2.49" from="L21" to="L23"/>
<trip type="noVar" depart="294" id="R1.49" from="R11" to="R13"/>
<trip type="noVar" depart="294" id="R2.49" from="R21" to="R23"/>
<trip type="noVar" depart="294" id="U1.49" from="U11" to="U13"/>
<trip type="noVar" depart="294" id="U2.49" from="U21" to="U23"/>
<trip type="noVar" depart="294" id="D1.49" from="D11" to="D13"/>
<trip type="noVar" depart="294" id="D2.49" from="D21" to="D23"/>
<trip type="noVar" depart="301" id="L1.50" from="L11" to="L13"/>
<trip type="noVar" depart="301" id="L2.50" from="L21" to="L23"/>
<trip type="noVar" depart="301" id="R1.50" from="R11" to="R13"/>
<trip type="noVar" depart="301" id="R2.50" from="R21" to="R23"/>
<trip type="noVar" depart="301" id="U1.50" from="U11" to="U13"/>
<trip type="noVar" depart="301" id="U2.50" from="U21" to="U23"/>
<trip type="noVar" depart="301" id="D1.50" from="D11" to="D13"/>
<trip type="noVar" depart="301" id="D2.50" from="D21" to="D23"/>
<trip type="noVar" depart="307" id="L1.51" from="L11" to="L13"/>
<trip type="noVar" depart="307" id="L2.51" from="L21" to="L23"/>
<trip type="noVar" depart="307" id="R1.51" from="R11" to="R13"/>
<trip type="noVar" depart="307" id="R2.51" from="R21" to="R23"/>
<trip type="noVar" depart="307" id="U1.51" from="U11" to="U13"/>
<trip type="noVar" depart="307" id="U2.51" from="U21" to="U23"/>
<trip type="noVar" depart="307" id="D1.51" from="D11" to="D13"/>
<trip type="noVar" depart="307" id="D2.51" from="D21" to="D23"/>
<trip type="noVar" depart="313" id="L1.52" from="L11" to="L13"/>
<trip type="noVar" depart="313" id="L2.52" from="L21" to="L23"/>
<trip type="noVar" depart="313" id="R1.52" from="R11" to="R13"/>
<trip type="noVar" depart="313" id="R2.52" from="R21" to="R23"/>
<trip type="noVar" depart="313" id="U1.52" from="U11" to="U13"/>
<trip type="noVar" depart="313" id="U2.52" from="U21" to="U23"/>
<trip type="noVar" depart="313" id="D1.52" from="D11" to="D13"/>
<trip type="noVar" depart="313" id="D2.52" from="D21" to="D23"/>
<trip type="noVar" depart="319" id="L1.53" from="L11" to="L13"/>
<trip type="noVar" depart="319" id="L2.53" from="L21" to="L23"/>
<trip type="noVar" depart="319" id="R1.53" from="R11" to="R13"/>
<trip type="noVar" depart="319" id="R2.53" from="R21" to="R23"/>
<trip type="noVar" depart="319" id="U1.53" from="U11" to="U13"/>
<trip type="noVar" depart="319" id="U2.53" from="U21" to="U23"/>
<trip type="noVar" depart="319" id="D1.53" from="D11" to="D13"/>
<trip type="noVar" depart="319" id="D2.53" from="D21" to="D23"/>
<trip type="noVar" depart="325" id="L1.54" from="L11" to="L13"/>
<trip type="noVar" depart="325" id="L2.54" from="L21" to="L23"/>
<trip type="noVar" depart="325" id="R1.54" from="R11" to="R13"/>
<trip type="noVar" depart="325" id="R2.54" from="R21" to="R23"/>
<trip type="noVar" depart="325" id="U1.54" from="U11" to="U13"/>
<trip type="noVar" depart="325" id="U2.54" from="U21" to="U23"/>
<trip type="noVar" depart="325" id="D1.54" from="D11" to="D13"/>
<trip type="noVar" depart="325" id="D2.54" from="D21" to="D23"/>
<trip type="noVar" depart="331" id="L1.55" from="L11" to="L13"/>
<trip type="noVar" depart="331" id="L2.55" from="L21" to="L23"/>
<trip type="noVar" depart="331" id="R1.55" from="R11" to="R13"/>
<trip type="noVar" depart="331" id="R2.55" from="R21" to="R23"/>
<trip type="noVar" depart="331" id="U1.55" from="U11" to="U13"/>
<trip type="noVar" depart="331" id="U2.55" from="U21" to="U23"/>
<trip type="noVar" depart="331" id="D1.55" from="D11" to="D13"/>
<trip type="noVar" depart="331" id="D2.55" from="D21" to="D23"/>
<trip type="noVar" depart="337" id="L1.56" from="L11" to="L13"/>
<trip type="noVar" depart="337" id="L2.56" from="L21" to="L23"/>
<trip type="noVar" depart="337" id="R1.56" from="R11" to="R13"/>
<trip type="noVar" depart="337" id="R2.56" from="R21" to="R23"/>
<trip type="noVar" depart="337" id="U1.56" from="U11" to="U13"/>
<trip type="noVar" depart="337" id="U2.56" from="U21" to="U23"/>
<trip type="noVar" depart="337" id="D1.56" from="D11" to="D13"/>
<trip type="noVar" depart="337" id="D2.56" from="D21" to="D23"/>
<trip type="noVar" depart="343" id="L1.57" from="L11" to="L13"/>
<trip type="noVar" depart="343" id="L2.57" from="L21" to="L23"/>
<trip type="noVar" depart="343" id="R1.57" from="R11" to="R13"/>
<trip type="noVar" depart="343" id="R2.57" from="R21" to="R23"/>
<trip type="noVar" depart="343" id="U1.57" from="U11" to="U13"/>