<?xml version="1.0" encoding="UTF-8"?>
<routes xmlns:xsi="http://www.w3.org/2001/XMLSchema-instance" xsi:noNamespaceSchemaLocation="http://sumo.dlr.de/xsd/routes_file.xsd">

<vType id="noVar" speedFactor="1.0" speedDev="0.0"/>
<route id="route_L1.0" edges="L11 L12 L13" />
<vehicle type="noVar" depart="0" id="L1.0" route="route_L1.0" />
<route id="route_L2.0" edges="L21 L22 L23" />
<vehicle type="noVar" depart="0" id="L2.0" route="route_L2.0" />
<route id="route_R1.0" edges="R11 R12 R13" />
<vehicle type="noVar" depart="0" id="R1.0" route="route_R1.0" />
<route id="route_R2.0" edges="R21 R22 R23" />
<vehicle type="noVar" depart="0" id="R2.0" route="route_R2.0" />
<route id="route_U1.0" edges="U11 U12 U13" />
<vehicle type="noVar" depart="0" id="U1.0" route="route_U1.0" />
<route id="route_U2.0" edges="U21 U22 U23" />
<vehicle type="noVar" depart="0" id="U2.0" route="route_U2.0" />
<route id="route_D1.0" edges="D11 D12 D13" />
<vehicle type="noVar" depart="0" id="D1.0" route="route_D1.0" />
<route id="route_D2.0" edges="D21 D22 D23" />
<vehicle type="noVar" depart="0" id="D2.0" route="route_D2.0" />
<route id="route_L1.1" edges="L11 L12 L13" />
<vehicle type="noVar" depart="6" id="L1.1" route="route_L1.1" />
<route id="route_L2.1" edges="L21 L22 L23" />
<vehicle type="noVar" depart="6" id="L2.1" route="route_L2.1" />
<route id="route_R1.1" edges="R11 R12 R13" />
<vehicle type="noVar" depart="6" id="R1.1" route="route_R1.1" />
<route id="route_R2.1" edges="R21 R22 R23" />
<vehicle type="noVar" depart="6" id="R2.1" route="route_R2.1" />
<route id="route_U1.1" edges="U11 U12 U13" />
<vehicle type="noVar" depart="6" id="U1.1" route="route_U1.1" />
<route id="route_U2.1" edges="U21 U22 U23" />
<vehicle type="noVar" depart="6" id="U2.1" route="route_U2.1" />
<route id="route_D1.1" edges="D11 D12 D13" />
<vehicle type="noVar" depart="6" id="D1.1" route="route_D1.1" />
<route id="route_D2.1" edges="D21 D22 D23" />
<vehicle type="noVar" depart="6" id="D2.1" route="route_D2.1" />
<route id="route_L1.2" edges="L11 L12 L13" />
<vehicle type="noVar" depart="12" id="L1.2" route="route_L1.2" />
<route id="route_L2.2" edges="L21 L22 L23" />
<vehicle type="noVar" depart="12" id="L2.2" route="route_L2.2" />
<route id="route_R1.2" edges="R11 R12 R13" />
<vehicle type="noVar" depart="12" id="R1.2" route="route_R1.2" />
<route id="route_R2.2" edges="R21 R22 R23" />
<vehicle type="noVar" depart="12" id="R2.2" route="route_R2.2" />
<route id="route_U1.2" edges="U11 U12 U13" />
<vehicle type="noVar" depart="12" id="U1.2" route="route_U1.2" />
<route id="route_U2.2" edges="U21 U22 U23" />
<vehicle type="noVar" depart="12" id="U2.2" route="route_U2.2" />
<route id="route_D1.2" edges="D11 D12 D13" />
<vehicle type="noVar" depart="12" id="D1.2" route="route_D1.2" />
<route id="route_D2.2" edges="D21 D22 D23" />
<vehicle type="noVar" depart="12" id="D2.2" route="route_D2.2" />
<route id="route_L1.3" edges="L11 L12 L13" />
<vehicle type="noVar" depart="18" id="L1.3" route="route_L1.3" />
<route id="route_L2.3" edges="L21 L22 L23" />
<vehicle type="noVar" depart="18" id="L2.3" route="route_L2.3" />
<route id="route_R1.3" edges="R11 R12 R13" />
<vehicle type="noVar" depart="18" id="R1.3" route="route_R1.3" />
<route id="route_R2.3" edges="R21 R22 R23" />
<vehicle type="noVar" depart="18" id="R2.3" route="route_R2.3" />
<route id="route_U1.3" edges="U11 U12 U13" />
<vehicle type="noVar" depart="18" id="U1.3" route="route_U1.3" />
<route id="route_U2.3" edges="U21 U22 U23" />
<vehicle type="noVar" depart="18" id="U2.3" route="route_U2.3" />
<route id="route_D1.3" edges="D11 D12 D13" />
<vehicle type="noVar" depart="18" id="D1.3" route="route_D1.3" />
<route id="route_D2.3" edges="D21 D22 D23" />
<vehicle type="noVar" depart="18" id="D2.3" route="route_D2.3" />
<route id="route_L1.4" edges="L11 L12 L13" />
<vehicle type="noVar" depart="24" id="L1.4" route="route_L1.4" />
<route id="route_L2.4" edges="L21 L22 L23" />
<vehicle type="noVar" depart="24" id="L2.4" route="route_L2.4" />
<route id="route_R1.4" edges="R11 R12 R13" />
<vehicle type="noVar" depart="24" id="R1.4" route="route_R1.4" />
<route id="route_R2.4" edges="R21 R22 R23" />
<vehicle type="noVar" depart="24" id="R2.4" route="route_R2.4" />
<route id="route_U1.4" edges="U11 U12 U13" />
<vehicle type="noVar" depart="24" id="U1.4" route="route_U1.4" />
<route id="route_U2.4" edges="U21 U22 U23" />
<vehicle type="noVar" depart="24" id="U2.4" route="route_U2.4" />
<route id="route_D1.4" edges="D11 D12 D13" />
<vehicle type="noVar" depart="24" id="D1.4" route="route_D1.4" />
<route id="route_D2.4" edges="D21 D22 D23" />
<vehicle type="noVar" depart="24" id="D2.4" route="route_D2.4" />
<route id="route_L1.5" edges="L11 L12 L13" />
<vehicle type="noVar" depart="30" id="L1.5" route="route_L1.5" />
<route id="route_L2.5" edges="L21 L22 L23" />
<vehicle type="noVar" depart="30" id="L2.5" route="route_L2.5" />
<route id="route_R1.5" edges="R11 R12 R13" />
<vehicle type="noVar" depart="30" id="R1.5" route="route_R1.5" />
<route id="route_R2.5" edges="R21 R22 R23" />
<vehicle type="noVar" depart="30" id="R2.5" route="route_R2.5" />
<route id="route_U1.5" edges="U11 U12 U13" />
<vehicle type="noVar" depart="30" id="U1.5" route="route_U1.5" />
<route id="route_U2.5" edges="U21 U22 U23" />
<vehicle type="noVar" depart="30" id="U2.5" route="route_U2.5" />
<route id="route_D1.5" edges="D11 D12 D13" />
<vehicle type="noVar" depart="30" id="D1.5" route="route_D1.5" />
<route id="route_D2.5" edges="D21 D22 D23" />
<vehicle type="noVar" depart="30" id="D2.5" route="route_D2.5" />
<route id="route_L1.6" edges="L11 L12 L13" />
<vehicle type="noVar" depart="36" id="L1.6" route="route_L1.6" />
<route id="route_L2.6" edges="L21 L22 L23" />
<vehicle type="noVar" depart="36" id="L2.6" route="route_L2.6" />
<route id="route_R1.6" edges="R11 R12 R13" />
<vehicle type="noVar" depart="36" id="R1.6" route="route_R1.6" />
<route id="route_R2.6" edges="R21 R22 R23" />
<vehicle type="noVar" depart="36" id="R2.6" route="route_R2.6" />
<route id="route_U1.6" edges="U11 U12 U13" />
<vehicle type="noVar" depart="36" id="U1.6" route="route_U1.6" />
<route id="route_U2.6" edges="U21 U22 U23" />
<vehicle type="noVar" depart="36" id="U2.6" route="route_U2.6" />
<route id="route_D1.6" edges="D11 D12 D13" />
<vehicle type="noVar" depart="36" id="D1.6" route="route_D1.6" />
<route id="route_D2.6" edges="D21 D22 D23" />
<vehicle type="noVar" depart="36" id="D2.6" route="route_D2.6" />
<route id="route_L1.7" edges="L11 L12 L13" />
<vehicle type="noVar" depart="42" id="L1.7" route="route_L1.7" />
<route id="route_L2.7" edges="L21 L22 L23" />
<vehicle type="noVar" depart="42" id="L2.7" route="route_L2.7" />
<route id="route_R1.7" edges="R11 R12 R13" />
<vehicle type="noVar" depart="42" id="R1.7" route="route_R1.7" />
<route id="route_R2.7" edges="R21 R22 R23" />
<vehicle type="noVar" depart="42" id="R2.7" route="route_R2.7" />
<route id="route_U1.7" edges="U11 U12 U13" />
<vehicle type="noVar" depart="42" id="U1.7" route="route_U1.7" />
<route id="route_U2.7" edges="U21 U22 U23" />
<vehicle type="noVar" depart="42" id="U2.7" route="route_U2.7" />
<route id="route_D1.7" edges="D11 D12 D13" />
<vehicle type="noVar" depart="42" id="D1.7" route="route_D1.7" />
<route id="route_D2.7" edges="D21 D22 D23" />
<vehicle type="noVar" depart="42" id="D2.7" route="route_D2.7" />
<route id="route_L1.8" edges="L11 L12 L13" />
<vehicle type="noVar" depart="48" id="L1.8" route="route_L1.8" />
<route id="route_L2.8" edges="L21 L22 L23" />
<vehicle type="noVar" depart="48" id="L2.8" route="route_L2.8" />
<route id="route_R1.8" edges="R11 R12 R13" />
<vehicle type="noVar" depart="48" id="R1.8" route="route_R1.8" />
<route id="route_R2.8" edges="R21 R22 R23" />
<vehicle type="noVar" depart="48" id="R2.8" route="route_R2.8" />
<route id="route_U1.8" edges="U11 U12 U13" />
<vehicle type="noVar" depart="48" id="U1.8" route="route_U1.8" />
<route id="route_U2.8" edges="U21 U22 U23" />
<vehicle type="noVar" depart="48" id="U2.8" route="route_U2.8" />
<route id="route_D1.8" edges="D11 D12 D13" />
<vehicle type="noVar" depart="48" id="D1.8" route="route_D1.8" />
<route id="route_D2.8" edges="D21 D22 D23" />
<vehicle type="noVar" depart="48" id="D2.8" route="route_D2.8" />
<route id="route_L1.9" edges="L11 L12 L13" />
<vehicle type="noVar" depart="54" id="L1.9" route="route_L1.9" />
<route id="route_L2.9" edges="L21 L22 L23" />
<vehicle type="noVar" depart="54" id="L2.9" route="route_L2.9" />
<route id="route_R1.9" edges="R11 R12 R13" />
<vehicle type="noVar" depart="54" id="R1.9" route="route_R1.9" />
<route id="route_R2.9" edges="R21 R22 R23" />
<vehicle type="noVar" depart="54" id="R2.9" route="route_R2.9" />
<route id="route_U1.9" edges="U11 U12 U13" />
<vehicle type="noVar" depart="54" id="U1.9" route="route_U1.9" />
<route id="route_U2.9" edges="U21 U22 U23" />
<vehicle type="noVar" depart="54" id="U2.9" route="route_U2.9" />
<route id="route_D1.9" edges="D11 D12 D13" />
<vehicle type="noVar" depart="54" id="D1.9" route="route_D1.9" />
<route id="route_D2.9" edges="D21 D22 D23" />
<vehicle type="noVar" depart="54" id="D2.9" route="route_D2.9" />
<route id="route_L1.10" edges="L11 L12 L13" />
<vehicle type="noVar" depart="60" id="L1.10" route="route_L1.10" />
<route id="route_L2.10" edges="L21 L22 L23" />
<vehicle type="noVar" depart="60" id="L2.10" route="route_L2.10" />
<route id="route_R1.10" edges="R11 R12 R13" />
<vehicle type="noVar" depart="60" id="R1.10" route="route_R1.10" />
<route id="route_R2.10" edges="R21 R22 R23" />
<vehicle type="noVar" depart="60" id="R2.10" route="route_R2.10" />
<route id="route_U1.10" edges="U11 U12 U13" />
<vehicle type="noVar" depart="60" id="U1.10" route="route_U1.10" />
<route id="route_U2.10" edges="U21 U22 U23" />
<vehicle type="noVar" depart="60" id="U2.10" route="route_U2.10" />
<route id="route_D1.10" edges="D11 D12 D13" />
<vehicle type="noVar" depart="60" id="D1.10" route="route_D1.10" />
<route id="route_D2.10" edges="D21 D22 D23" />
<vehicle type="noVar" depart="60" id="D2.10" route="route_D2.10" />
<route id="route_L1.11" edges="L11 L12 L13" />
<vehicle type="noVar" depart="66" id="L1.11" route="route_L1.11" />
<route id="route_L2.11" edges="L21 L22 L23" />
<vehicle type="noVar" depart="66" id="L2.11" route="route_L2.11" />
<route id="route_R1.11" edges="R11 R12 R13" />
<vehicle type="noVar" depart="66" id="R1.11" route="route_R1.11" />
<route id="route_R2.11" edges="R21 R22 R23" />
<vehicle type="noVar" depart="66" id="R2.11" route="route_R2.11" />
<route id="route_U1.11" edges="U11 U12 U13" />
<vehicle type="noVar" depart="66" id="U1.11" route="route_U1.11" />
<route id="route_U2.11" edges="U21 U22 U23" />
<vehicle type="noVar" depart="66" id="U2.11" route="route_U2.11" />
<route id="route_D1.11" edges="D11 D12 D13" />
<vehicle type="noVar" depart="66" id="D1.11" route="route_D1.11" />
<route id="route_D2.11" edges="D21 D22 D23" />
<vehicle type="noVar" depart="66" id="D2.11" route="route_D2.11" />
<route id="route_L1.12" edges="L11 L12 L13" />
<vehicle type="noVar" depart="72" id="L1.12" route="route_L1.12" />
<route id="route_L2.12" edges="L21 L22 L23" />
<vehicle type="noVar" depart="72" id="L2.12" route="route_L2.12" />
<route id="route_R1.12" edges="R11 R12 R13" />
<vehicle type="noVar" depart="72" id="R1.12" route="route_R1.12" />
<route id="route_R2.12" edges="R21 R22 R23" />
<vehicle type="noVar" depart="72" id="R2.12" route="route_R2.12" />
<route id="route_U1.12" edges="U11 U12 U13" />
<vehicle type="noVar" depart="72" id="U1.12" route="route_U1.12" />
<route id="route_U2.12" edges="U21 U22 U23" />
<vehicle type="noVar" depart="72" id="U2.12" route="route_U2.12" />
<route id="route_D1.12" edges="D11 D12 D13" />
<vehicle type="noVar" depart="72" id="D1.12" route="route_D1.12" />
<route id="route_D2.12" edges="D21 D22 D23" />
<vehicle type="noVar" depart="72" id="D2.12" route="route_D2.12" />
<route id="route_L1.13" edges="L11 L12 L13" />
<vehicle type="noVar" depart="78" id="L1.13" route="route_L1.13" />
<route id="route_L2.13" edges="L21 L22 L23" />
<vehicle type="noVar" depart="78" id="L2.13" route="route_L2.13" />
<route id="route_R1.13" edges="R11 R12 R13" />
<vehicle type="noVar" depart="78" id="R1.13" route="route_R1.13" />
<route id="route_R2.13" edges="R21 R22 R23" />
<vehicle type="noVar" depart="78" id="R2.13" route="route_R2.13" />
<route id="route_U1.13" edges="U11 U12 U13" />
<vehicle type="noVar" depart="78" id="U1.13" route="route_U1.13" />
<route id="route_U2.13" edges="U21 U22 U23" />
<vehicle type="noVar" depart="78" id="U2.13" route="route_U2.13" />
<route id="route_D1.13" edges="D11 D12 D13" />
<vehicle type="noVar" depart="78" id="D1.13" route="route_D1.13" />
<route id="route_D2.13" edges="D21 D22 D23" />
<vehicle type="noVar" depart="78" id="D2.13" route="route_D2.13" />
<route id="route_L1.14" edges="L11 L12 L13" />
<vehicle type="noVar" depart="84" id="L1.14" route="route_L1.14" />
<route id="route_L2.14" edges="L21 L22 L23" />
<vehicle type="noVar" depart="84" id="L2.14" route="route_L2.14" />
<route id="route_R1.14" edges="R11 R12 R13" />
<vehicle type="noVar" depart="84" id="R1.14" route="route_R1.14" />
<route id="route_R2.14" edges="R21 R22 R23" />
<vehicle type="noVar" depart="84" id="R2.14" route="route_R2.14" />
<route id="route_U1.14" edges="U11 U12 U13" />
<vehicle type="noVar" depart="84" id="U1.14" route="route_U1.14" />
<route id="route_U2.14" edges="U21 U22 U23" />
<vehicle type="noVar" depart="84" id="U2.14" route="route_U2.14" />
<route id="route_D1.14" edges="D11 D12 D13" />
<vehicle type="noVar" depart="84" id="D1.14" route="route_D1.14" />
<route id="route_D2.14" edges="D21 D22 D23" />
<vehicle type="noVar" depart="84" id="D2.14" route="route_D2.14" />
<route id="route_L1.15" edges="L11 L12 L13" />
<vehicle type="noVar" depart="90" id="L1.15" route="route_L1.15" />
<route id="route_L2.15" edges="L21 L22 L23" />
<vehicle type="noVar" depart="90" id="L2.15" route="route_L2.15" />
<route id="route_R1.15" edges="R11 R12 R13" />
<vehicle type="noVar" depart="90" id="R1.15" route="route_R1.15" />
<route id="route_R2.15" edges="R21 R22 R23" />
<vehicle type="noVar" depart="90" id="R2.15" route="route_R2.15" />
<route id="route_U1.15" edges="U11 U12 U13" />
<vehicle type="noVar" depart="90" id="U1.15" route="route_U1.15" />
<route id="route_U2.15" edges="U21 U22 U23" />
<vehicle type="noVar" depart="90" id="U2.15" route="route_U2.15" />
<route id="route_D1.15" edges="D11 D12 D13" />
<vehicle type="noVar" depart="90" id="D1.15" route="route_D1.15" />
<route id="route_D2.15" edges="D21 D22 D23" />
<vehicle type="noVar" depart="90" id="D2.15" route="route_D2.15" />
<route id="route_L1.16" edges="L11 L12 L13" />
<vehicle type="noVar" depart="96" id="L1.16" route="route_L1.16" />
<route id="route_L2.16" edges="L21 L22 L23" />
<vehicle type="noVar" depart="96" id="L2.16" route="route_L2.16" />
<route id="route_R1.16" edges="R11 R12 R13" />
<vehicle type="noVar" depart="96" id="R1.16" route="route_R1.16" />
<route id="route_R2.16" edges="R21 R22 R23" />
<vehicle type="noVar" depart="96" id="R2.16" route="route_R2.16" />
<route id="route_U1.16" edges="U11 U12 U13" />
<vehicle type="noVar" depart="96" id="U1.16" route="route_U1.16" />
<route id="route_U2.16" edges="U21 U22 U23" />
<vehicle type="noVar" depart="96" id="U2.16" route="route_U2.16" />
<route id="route_D1.16" edges="D11 D12 D13" />
<vehicle type="noVar" depart="96" id="D1.16" route="route_D1.16" />
<route id="route_D2.16" edges="D21 D22 D23" />
<vehicle type="noVar" depart="96" id="D2.16" route="route_D2.16" />
<route id="route_L1.17" edges="L11 L12 L13" />
<vehicle type="noVar" depart="102" id="L1.17" route="route_L1.17" />
<route id="route_L2.17" edges="L21 L22 L23" />
<vehicle type="noVar" depart="102" id="L2.17" route="route_L2.17" />
<route id="route_R1.17" edges="R11 R12 R13" />
<vehicle type="noVar" depart="102" id="R1.17" route="route_R1.17" />
<route id="route_R2.17" edges="R21 R22 R23" />
<vehicle type="noVar" depart="102" id="R2.17" route="route_R2.17" />
<route id="route_U1.17" edges="U11 U12 U13" />
<vehicle type="noVar" depart="102" id="U1.17" route="route_U1.17" />
<route id="route_U2.17" edges="U21 U22 U23" />
<vehicle type="noVar" depart="102" id="U2.17" route="route_U2.17" />
<route id="route_D1.17" edges="D11 D12 D13" />
<vehicle type="noVar" depart="102" id="D1.17" route="route_D1.17" />
<route id="route_D2.17" edges="D21 D22 D23" />
<vehicle type="noVar" depart="102" id="D2.17" route="route_D2.17" />
<route id="route_L1.18" edges="L11 L12 L13" />
<vehicle type="noVar" depart="108" id="L1.18" route="route_L1.18" />
<route id="route_L2.18" edges="L21 L22 L23" />
<vehicle type="noVar" depart="108" id="L2.18" route="route_L2.18" />
<route id="route_R1.18" edges="R11 R12 R13" />
<vehicle type="noVar" depart="108" id="R1.18" route="route_R1.18" />
<route id="route_R2.18" edges="R21 R22 R23" />
<vehicle type="noVar" depart="108" id="R2.18" route="route_R2.18" />
<route id="route_U1.18" edges="U11 U12 U13" />
<vehicle type="noVar" depart="108" id="U1.18" route="route_U1.18" />
<route id="route_U2.18" edges="U21 U22 U23" />
<vehicle type="noVar" depart="108" id="U2.18" route="route_U2.18" />
<route id="route_D1.18" edges="D11 D12 D13" />
<vehicle type="noVar" depart="108" id="D1.18" route="route_D1.18" />
<route id="route_D2.18" edges="D21 D22 D23" />
<vehicle type="noVar" depart="108" id="D2.18" route="route_D2.18" />
<route id="route_L1.19" edges="L11 L12 L13" />
<vehicle type="noVar" depart="114" id="L1.19" route="route_L1.19" />
<route id="route_L2.19" edges="L21 L22 L23" />
<vehicle type="noVar" depart="114" id="L2.19" route="route_L2.19" />
<route id="route_R1.19" edges="R11 R12 R13" />
<vehicle type="noVar" depart="114" id="R1.19" route="route_R1.19" />
<route id="route_R2.19" edges="R21 R22 R23" />
<vehicle type="noVar" depart="114" id="R2.19" route="route_R2.19" />
<route id="route_U1.19" edges="U11 U12 U13" />
<vehicle type="noVar" depart="114" id="U1.19" route="route_U1.19" />
<route id="route_U2.19" edges="U21 U22 U23" />
<vehicle type="noVar" depart="114" id="U2.19" route="route_U2.19" />
<route id="route_D1.19" edges="D11 D12 D13" />
<vehicle type="noVar" depart="114" id="D1.19" route="route_D1.19" />
<route id="route_D2.19" edges="D21 D22 D23" />
<vehicle type="noVar" depart="114" id="D2.19" route="route_D2.19" />
<route id="route_L1.20" edges="L11 L12 L13" />
<vehicle type="noVar" depart="120" id="L1.20" route="route_L1.20" />
<route id="route_L2.20" edges="L21 L22 L23" />
<vehicle type="noVar" depart="120" id="L2.20" route="route_L2.20" />
<route id="route_R1.20" edges="R11 R12 R13" />
<vehicle type="noVar" depart="120" id="R1.20" route="route_R1.20" />
<route id="route_R2.20" edges="R21 R22 R23" />
<vehicle type="noVar" depart="120" id="R2.20" route="route_R2.20" />
<route id="route_U1.20" edges="U11 U12 U13" />
<vehicle type="noVar" depart="120" id="U1.20" route="route_U1.20" />
<route id="route_U2.20" edges="U21 U22 U23" />
<vehicle type="noVar" depart="120" id="U2.20" route="route_U2.20" />
<route id="route_D1.20" edges="D11 D12 D13" />
<vehicle type="noVar" depart="120" id="D1.20" route="route_D1.20" />
<route id="route_D2.20" edges="D21 D22 D23" />
<vehicle type="noVar" depart="120" id="D2.20" route="route_D2.20" />
<route id="route_L1.21" edges="L11 L12 L13" />
<vehicle type="noVar" depart="126" id="L1.21" route="route_L1.21" />
<route id="route_L2.21" edges="L21 L22 L23" />
<vehicle type="noVar" depart="126" id="L2.21" route="route_L2.21" />
<route id="route_R1.21" edges="R11 R12 R13" />
<vehicle type="noVar" depart="126" id="R1.21" route="route_R1.21" />
<route id="route_R2.21" edges="R21 R22 R23" />
<vehicle type="noVar" depart="126" id="R2.21" route="route_R2.21" />
<route id="route_U1.21" edges="U11 U12 U13" />
<vehicle type="noVar" depart="126" id="U1.21" route="route_U1.21" />
<route id="route_U2.21" edges="U21 U22 U23" />
<vehicle type="noVar" depart="126" id="U2.21" route="route_U2.21" />
<route id="route_D1.21" edges="D11 D12 D13" />
<vehicle type="noVar" depart="126" id="D1.21" route="route_D1.21" />
<route id="route_D2.21" edges="D21 D22 D23" />
<vehicle type="noVar" depart="126" id="D2.21" route="route_D2.21" />
<route id="route_L1.22" edges="L11 L12 L13" />
<vehicle type="noVar" depart="132" id="L1.22" route="route_L1.22" />
<route id="route_L2.22" edges="L21 L22 L23" />
<vehicle type="noVar" depart="132" id="L2.22" route="route_L2.22" />
<route id="route_R1.22" edges="R11 R12 R13" />
<vehicle type="noVar" depart="132" id="R1.22" route="route_R1.22" />
<route id="route_R2.22" edges="R21 R22 R23" />
<vehicle type="noVar" depart="132" id="R2.22" route="route_R2.22" />
<route id="route_U1.22" edges="U11 U12 U13" />
<vehicle type="noVar" depart="132" id="U1.22" route="route_U1.22" />
<route id="route_U2.22" edges="U21 U22 U23" />
<vehicle type="noVar" depart="132" id="U2.22" route="route_U2.22" />
<route id="route_D1.22" edges="D11 D12 D13" />
<vehicle type="noVar" depart="132" id="D1.22" route="route_D1.22" />
<route id="route_D2.22" edges="D21 D22 D23" />
<vehicle type="noVar" depart="132" id="D2.22" route="route_D2.22" />
<route id="route_L1.23" edges="L11 L12 L13" />
<vehicle type="noVar" depart="138" id="L1.23" route="route_L1.23" />
<route id="route_L2.23" edges="L21 L22 L23" />
<vehicle type="noVar" depart="138" id="L2.23" route="route_L2.23" />
<route id="route_R1.23" edges="R11 R12 R13" />
<vehicle type="noVar" depart="138" id="R1.23" route="route_R1.23" />
<route id="route_R2.23" edges="R21 R22 R23" />
<vehicle type="noVar" depart="138" id="R2.23" route="route_R2.23" />
<route id="route_U1.23" edges="U11 U12 U13" />
<vehicle type="noVar" depart="138" id="U1.23" route="route_U1.23" />
<route id="route_U2.23" edges="U21 U22 U23" />
<vehicle type="noVar" depart="138" id="U2.23" route="route_U2.23" />
<route id="route_D1.23" edges="D11 D12 D13" />
<vehicle type="noVar" depart="138" id="D1.23" route="route_D1.23" />
<route id="route_D2.23" edges="D21 D22 D23" />
<vehicle type="noVar" depart="138" id="D2.23" route="route_D2.23" />
<route id="route_L1.24" edges="L11 L12 L13" />
<vehicle type="noVar" depart="144" id="L1.24" route="route_L1.24" />
<route id="route_L2.24" edges="L21 L22 L23" />
<vehicle type="noVar" depart="144" id="L2.24" route="route_L2.24" />
<route id="route_R1.24" edges="R11 R12 R13" />
<vehicle type="noVar" depart="144" id="R1.24" route="route_R1.24" />
<route id="route_R2.24" edges="R21 R22 R23" />
<vehicle type="noVar" depart="144" id="R2.24" route="route_R2.24" />
<route id="route_U1.24" edges="U11 U12 U13" />
<vehicle type="noVar" depart="144" id="U1.24" route="route_U1.24" />
<route id="route_U2.24" edges="U21 U22 U23" />
<vehicle type="noVar" depart="144" id="U2.24" route="route_U2.24" />
<route id="route_D1.24" edges="D11 D12 D13" />
<vehicle type="noVar" depart="144" id="D1.24" route="route_D1.24" />
<route id="route_D2.24" edges="D21 D22 D23" />
<vehicle type="noVar" depart="144" id="D2.24" route="route_D2.24" />
<route id="route_L1.25" edges="L11 L12 L13" />
<vehicle type="noVar" depart="150" id="L1.25" route="route_L1.25" />
<route id="route_L2.25" edges="L21 L22 L23" />
<vehicle type="noVar" depart="150" id="L2.25" route="route_L2.25" />
<route id="route_R1.25" edges="R11 R12 R13" />
<vehicle type="noVar" depart="150" id="R1.25" route="route_R1.25" />
<route id="route_R2.25" edges="R21 R22 R23" />
<vehicle type="noVar" depart="150" id="R2.25" route="route_R2.25" />
<route id="route_U1.25" edges="U11 U12 U13" />
<vehicle type="noVar" depart="150" id="U1.25" route="route_U1.25" />
<route id="route_U2.25" edges="U21 U22 U23" />
<vehicle type="noVar" depart="150" id="U2.25" route="route_U2.25" />
<route id="route_D1.25" edges="D11 D12 D13" />
<vehicle type="noVar" depart="150" id="D1.25" route="route_D1.25" />
<route id="route_D2.25" edges="D21 D22 D23" />
<vehicle type="noVar" depart="150" id="D2.25" route="route_D2.25" />
<route id="route_L1.26" edges="L11 L12 L13" />
<vehicle type="noVar" depart="156" id="L1.26" route="route_L1.26" />
<route id="route_L2.26" edges="L21 L22 L23" />
<vehicle type="noVar" depart="156" id="L2.26" route="route_L2.26" />
<route id="route_R1.26" edges="R11 R12 R13" />
<vehicle type="noVar" depart="156" id="R1.26" route="route_R1.26" />
<route id="route_R2.26" edges="R21 R22 R23" />
<vehicle type="noVar" depart="156" id="R2.26" route="route_R2.26" />
<route id="route_U1.26" edges="U11 U12 U13" />
<vehicle type="noVar" depart="156" id="U1.26" route="route_U1.26" />
<route id="route_U2.26" edges="U21 U22 U23" />
<vehicle type="noVar" depart="156" id="U2.26" route="route_U2.26" />
<route id="route_D1.26" edges="D11 D12 D13" />
<vehicle type="noVar" depart="156" id="D1.26" route="route_D1.26" />
<route id="route_D2.26" edges="D21 D22 D23" />
<vehicle type="noVar" depart="156" id="D2.26" route="route_D2.26" />
<route id="route_L1.27" edges="L11 L12 L13" />
<vehicle type="noVar" depart="162" id="L1.27" route="route_L1.27" />
<route id="route_L2.27" edges="L21 L22 L23" />
<vehicle type="noVar" depart="162" id="L2.27" route="route_L2.27" />
<route id="route_R1.27" edges="R11 R12 R13" />
<vehicle type="noVar" depart="162" id="R1.27" route="route_R1.27" />
<route id="route_R2.27" edges="R21 R22 R23" />
<vehicle type="noVar" depart="162" id="R2.27" route="route_R2.27" />
<route id="route_U1.27" edges="U11 U12 U13" />
<vehicle type="noVar" depart="162" id="U1.27" route="route_U1.27" />
<route id="route_U2.27" edges="U21 U22 U23" />
<vehicle type="noVar" depart="162" id="U2.27" route="route_U2.27" />
<route id="route_D1.27" edges="D11 D12 D13" />
<vehicle type="noVar" depart="162" id="D1.27" route="route_D1.27" />
<route id="route_D2.27" edges="D21 D22 D23" />
<vehicle type="noVar" depart="162" id="D2.27" route="route_D2.27" />
<route id="route_L1.28" edges="L11 L12 L13" />
<vehicle type="noVar" depart="168" id="L1.28" route="route_L1.28" />
<route id="route_L2.28" edges="L21 L22 L23" />
<vehicle type="noVar" depart="168" id="L2.28" route="route_L2.28" />
<route id="route_R1.28" edges="R11 R12 R13" />
<vehicle type="noVar" depart="168" id="R1.28" route="route_R1.28" />
<route id="route_R2.28" edges="R21 R22 R23" />
<vehicle type="noVar" depart="168" id="R2.28" route="route_R2.28" />
<route id="route_U1.28" edges="U11 U12 U13" />
<vehicle type="noVar" depart="168" id="U1.28" route="route_U1.28" />
<route id="route_U2.28" edges="U21 U22 U23" />
<vehicle type="noVar" depart="168" id="U2.28" route="route_U2.28" />
<route id="route_D1.28" edges="D11 D12 D13" />
<vehicle type="noVar" depart="168" id="D1.28" route="route_D1.28" />
<route id="route_D2.28" edges="D21 D22 D23" />
<vehicle type="noVar" depart="168" id="D2.28" route="route_D2.28" />
<route id="route_L1.29" edges="L11 L12 L13" />
<vehicle type="noVar" depart="174" id="L1.29" route="route_L1.29" />
<route id="route_L2.29" edges="L21 L22 L23" />
<vehicle type="noVar" depart="174" id="L2.29" route="route_L2.29" />
<route id="route_R1.29" edges="R11 R12 R13" />
<vehicle type="noVar" depart="174" id="R1.29" route="route_R1.29" />
<route id="route_R2.29" edges="R21 R22 R23" />
<vehicle type="noVar" depart="174" id="R2.29" route="route_R2.29" />
<route id="route_U1.29" edges="U11 U12 U13" />
<vehicle type="noVar" depart="174" id="U1.29" route="route_U1.29" />
<route id="route_U2.29" edges="U21 U22 U23" />
<vehicle type="noVar" depart="174" id="U2.29" route="route_U2.29" />
<route id="route_D1.29" edges="D11 D12 D13" />
<vehicle type="noVar" depart="174" id="D1.29" route="route_D1.29" />
<route id="route_D2.29" edges="D21 D22 D23" />
<vehicle type="noVar" depart="174" id="D2.29" route="route_D2.29" />
<route id="route_L1.30" edges="L11 L12 L13" />
<vehicle type="noVar" depart="180" id="L1.30" route="route_L1.30" />
<route id="route_L2.30" edges="L21 L22 L23" />
<vehicle type="noVar" depart="180" id="L2.30" route="route_L2.30" />
<route id="route_R1.30" edges="R11 R12 R13" />
<vehicle type="noVar" depart="180" id="R1.30" route="route_R1.30" />
<route id="route_R2.30" edges="R21 R22 R23" />
<vehicle type="noVar" depart="180" id="R2.30" route="route_R2.30" />
<route id="route_U1.30" edges="U11 U12 U13" />
<vehicle type="noVar" depart="180" id="U1.30" route="route_U1.30" />
<route id="route_U2.30" edges="U21 U22 U23" />
<vehicle type="noVar" depart="180" id="U2.30" route="route_U2.30" />
<route id="route_D1.30" edges="D11 D12 D13" />
<vehicle type="noVar" depart="180" id="D1.30" route="route_D1.30" />
<route id="route_D2.30" edges="D21 D22 D23" />
<vehicle type="noVar" depart="180" id="D2.30" route="route_D2.30" />
<route id="route_L1.31" edges="L11 L12 L13" />
<vehicle type="noVar" depart="186" id="L1.31" route="route_L1.31" />
<route id="route_L2.31" edges="L21 L22 L23" />
<vehicle type="noVar" depart="186" id="L2.31" route="route_L2.31" />
<route id="route_R1.31" edges="R11 R12 R13" />
<vehicle type="noVar" depart="186" id="R1.31" route="route_R1.31" />
<route id="route_R2.31" edges="R21 R22 R23" />
<vehicle type="noVar" depart="186" id="R2.31" route="route_R2.31" />
<route id="route_U1.31" edges="U11 U12 U13" />
<vehicle type="noVar" depart="186" id="U1.31" route="route_U1.31" />
<route id="route_U2.31" edges="U21 U22 U23" />
<vehicle type="noVar" depart="186" id="U2.31" route="route_U2.31" />
<route id="route_D1.31" edges="D11 D12 D13" />
<vehicle type="noVar" depart="186" id="D1.31" route="route_D1.31" />
<route id="route_D2.31" edges="D21 D22 D23" />
<vehicle type="noVar" depart="186" id="D2.31" route="route_D2.31" />
<route id="route_L1.32" edges="L11 L12 L13" />
<vehicle type="noVar" depart="192" id="L1.32" route="route_L1.32" />
<route id="route_L2.32" edges="L21 L22 L23" />
<vehicle type="noVar" depart="192" id="L2.32" route="route_L2.32" />
<route id="route_R1.32" edges="R11 R12 R13" />
<vehicle type="noVar" depart="192" id="R1.32" route="route_R1.32" />
<route id="route_R2.32" edges="R21 R22 R23" />
<vehicle type="noVar" depart="192" id="R2.32" route="route_R2.32" />