<?xml version="1.0" encoding="UTF-8"?>
<routes xmlns:xsi="http://www.w3.org/2001/XMLSchema-instance" xsi:noNamespaceSchemaLocation="http://sumo.dlr.de/xsd/routes_file.xsd">

<vType id="noVar" speedFactor="1.0" speedDev="0.0"/>
<trip type="noVar" depart="0" id="Lflow.0" from="in" to="out"/>
<trip type="noVar" depart="0" id="Rflow.0" from="in" to="out"/>
<trip type="noVar" depart="3" id="Lflow.1" from="in" to="out"/>
<trip type="noVar" depart="7" id="Lflow.2" from="in" to="out"/>
<trip type="noVar" depart="10" id="Lflow.3" from="in" to="out"/>
<trip type="noVar" depart="14" id="Lflow.4" from="in" to="out"/>
<trip type="noVar" depart="18" id="Lflow.5" from="in" to="out"/>
<trip type="noVar" depart="18" id="Rflow.1" from="in" to="out"/>
<trip type="noVar" depart="21" id="Lflow.6" from="in" to="out"/>
<trip type="noVar" depart="25" id="Lflow.7" from="in" to="out"/>
<trip type="noVar" depart="28" id="Lflow.8" from="in" to="out"/>
<trip type="noVar" depart="32" id="Lflow.9" from="in" to="out"/>
<trip type="noVar" depart="36" id="Lflow.10" from="in" to="out"/>
<trip type="noVar" depart="36" id="Rflow.2" from="in" to="out"/>
<trip type="noVar" depart="39" id="Lflow.11" from="in" to="out"/>
<trip type="noVar" depart="43" id="Lflow.12" from="in" to="out"/>
<trip type="noVar" depart="46" id="Lflow.13" from="in" to="out"/>
<trip type="noVar" depart="50" id="Lflow.14" from="in" to="out"/>
<trip type="noVar" depart="54" id="Lflow.15" from="in" to="out"/>
<trip type="noVar" depart="54" id="Rflow.3" from="in" to="out"/>
<trip type="noVar" depart="57" id="Lflow.16" from="in" to="out"/>
<trip type="noVar" depart="61" id="Lflow.17" from="in" to="out"/>
<trip type="noVar" depart="64" id="Lflow.18" from="in" to="out"/>
<trip type="noVar" depart="68" id="Lflow.19" from="in" to="out"/>
<trip type="noVar" depart="72" id="Lflow.20" from="in" to="out"/>
<trip type="noVar" depart="72" id="Rflow.4" from="in" to="out"/>
<trip type="noVar" depart="75" id="Lflow.21" from="in" to="out"/>
<trip type="noVar" depart="79" id="Lflow.22" from="in" to="out"/>
<trip type="noVar" depart="82" id="Lflow.23" from="in" to="out"/>
<trip type="noVar" depart="86" id="Lflow.24" from="in" to="out"/>
<trip type="noVar" depart="90" id="Lflow.25" from="in" to="out"/>
<trip type="noVar" depart="90" id="Rflow.5" from="in" to="out"/>
<trip type="noVar" depart="93" id="Lflow.26" from="in" to="out"/>
<trip type="noVar" depart="97" id="Lflow.27" from="in" to="out"/>
<trip type="noVar" depart="100" id="Lflow.28" from="in" to="out"/>
<trip type="noVar" depart="104" id="Lflow.29" from="in" to="out"/>
<trip type="noVar" depart="108" id="Lflow.30" from="in" to="out"/>
<trip type="noVar" depart="108" id="Rflow.6" from="in" to="out"/>
<trip type="noVar" depart="111" id="Lflow.31" from="in" to="out"/>
<trip type="noVar" depart="115" id="Lflow.32" from="in" to="out"/>
<trip type="noVar" depart="118" id="Lflow.33" from="in" to="out"/>
<trip type="noVar" depart="122" id="Lflow.34" from="in" to="out"/>
<trip type="noVar" depart="126" id="Lflow.35" from="in" to="out"/>
<trip type="noVar" depart="126" id="Rflow.7" from="in" to="out"/>
<trip type="noVar" depart="129" id="Lflow.36" from="in" to="out"/>
<trip type="noVar" depart="133" id="Lflow.37" from="in" to="out"/>
<trip type="noVar" depart="136" id="Lflow.38" from="in" to="out"/>
<trip type="noVar" depart="140" id="Lflow.39" from="in" to="out"/>
<trip type="noVar" depart="144" id="Lflow.40" from="in" to="out"/>
<trip type="noVar" depart="144" id="Rflow.8" from="in" to="out"/>
<trip type="noVar" depart="147" id="Lflow.41" from="in" to="out"/>
<trip type="noVar" depart="151" id="Lflow.42" from="in" to="out"/>
<trip type="noVar" depart="154" id="Lflow.43" from="in" to="out"/>
<trip type="noVar" depart="158" id="Lflow.44" from="in" to="out"/>
<trip type="noVar" depart="162" id="Lflow.45" from="in" to="out"/>
<trip type="noVar" depart="162" id="Rflow.9" from="in" to="out"/>
<trip type="noVar" depart="165" id="Lflow.46" from="in" to="out"/>
<trip type="noVar" depart="169" id="Lflow.47" from="in" to="out"/>
<trip type="noVar" depart="172" id="Lflow.48" from="in" to="out"/>
<trip type="noVar" depart="176" id="Lflow.49" from="in" to="out"/>
<trip type="noVar" depart="180" id="Lflow.50" from="in" to="out"/>
<trip type="noVar" depart="180" id="Rflow.10" from="in" to="out"/>
<trip type="noVar" depart="183" id="Lflow.51" from="in" to="out"/>
<trip type="noVar" depart="187" id="Lflow.52" from="in" to="out"/>
<trip type="noVar" depart="190" id="Lflow.53" from="in" to="out"/>
<trip type="noVar" depart="194" id="Lflow.54" from="in" to="out"/>
<trip type="noVar" depart="198" id="Lflow.55" from="in" to="out"/>
<trip type="noVar" depart="198" id="Rflow.11" from="in" to="out"/>
<trip type="noVar" depart="201" id="Lflow.56" from="in" to="out"/>
<trip type="noVar" depart="205" id="Lflow.57" from="in" to="out"/>
<trip type="noVar" depart="209" id="Lflow.58" from="in" to="out"/>
<trip type="noVar" depart="212" id="Lflow.59" from="in" to="out"/>
<trip type="noVar" depart="216" id="Lflow.60" from="in" to="out"/>
<trip type="noVar" depart="217" id="Rflow.12" from="in" to="out"/>
<trip type="noVar" depart="219" id="Lflow.61" from="in" to="out"/>
<trip type="noVar" depart="223" id="Lflow.62" from="in" to="out"/>
<trip type="noVar" depart="227" id="Lflow.63" from="in" to="out"/>
<trip type="noVar" depart="230" id="Lflow.64" from="in" to="out"/>
<trip type="noVar" depart="234" id="Lflow.65" from="in" to="out"/>
<trip type="noVar" depart="235" id="Rflow.13" from="in" to="out"/>
<trip type="noVar" depart="237" id="Lflow.66" from="in" to="out"/>
<trip type="noVar" depart="241" id="Lflow.67" from="in" to="out"/>
<trip type="noVar" depart="245" id="Lflow.68" from="in" to="out"/>
<trip type="noVar" depart="248" id="Lflow.69" from="in" to="out"/>
<trip type="noVar" depart="252" id="Lflow.70" from="in" to="out"/>
<trip type="noVar" depart="253" id="Rflow.14" from="in" to="out"/>
<trip type="noVar" depart="255" id="Lflow.71" from="in" to="out"/>
<trip type="noVar" depart="259" id="Lflow.72" from="in" to="out"/>
<trip type="noVar" depart="263" id="Lflow.73" from="in" to="out"/>
<trip type="noVar" depart="266" id="Lflow.74" from="in" to="out"/>
<trip type="noVar" depart="270" id="Lflow.75" from="in" to="out"/>
<trip type="noVar" depart="271" id="Rflow.15" from="in" to="out"/>
<trip type="noVar" depart="273" id="Lflow.76" from="in" to="out"/>
<trip type="noVar" depart="277" id="Lflow.77" from="in" to="out"/>
<trip type="noVar" depart="281" id="Lflow.78" from="in" to="out"/>
<trip type="noVar" depart="284" id="Lflow.79" from="in" to="out"/>
<trip type="noVar" depart="288" id="Lflow.80" from="in" to="out"/>
<trip type="noVar" depart="289" id="Rflow.16" from="in" to="out"/>
<trip type="noVar" depart="291" id="Lflow.81" from="in" to="out"/>
<trip type="noVar" depart="295" id="Lflow.82" from="in" to="out"/>
<trip type="noVar" depart="299" id="Lflow.83" from="in" to="out"/>
<trip type="noVar" depart="302" id="Lflow.84" from="in" to="out"/>
<trip type="noVar" depart="306" id="Lflow.85" from="in" to="out"/>
<trip type="noVar" depart="307" id="Rflow.17" from="in" to="out"/>
<trip type="noVar" depart="309" id="Lflow.86" from="in" to="out"/>
<trip type="noVar" depart="313" id="Lflow.87" from="in" to="out"/>
<trip type="noVar" depart="317" id="Lflow.88" from="in" to="out"/>
<trip type="noVar" depart="320" id="Lflow.89" from="in" to="out"/>
<trip type="noVar" depart="324" id="Lflow.90" from="in" to="out"/>
<trip type="noVar" depart="325" id="Rflow.18" from="in" to="out"/>
<trip type="noVar" depart="327" id="Lflow.91" from="in" to="out"/>
<trip type="noVar" depart="331" id="Lflow.92" from="in" to="out"/>
<trip type="noVar" depart="335" id="Lflow.93" from="in" to="out"/>
<trip type="noVar" depart="338" id="Lflow.94" from="in" to="out"/>
<trip type="noVar" depart="342" id="Lflow.95" from="in" to="out"/>
<trip type="noVar" depart="343" id="Rflow.19" from="in" to="out"/>
<trip type="noVar" depart="345" id="Lflow.96" from="in" to="out"/>
<trip type="noVar" depart="349" id="Lflow.97" from="in" to="out"/>
<trip type="noVar" depart="353" id="Lflow.98" from="in" to="out"/>
<trip type="noVar" depart="356" id="Lflow.99" from="in" to="out"/>
<trip type="noVar" depart="360" id="Lflow.100" from="in" to="out"/>
<trip type="noVar" depart="361" id="Rflow.20" from="in" to="out"/>
<trip type="noVar" depart="363" id="Lflow.101" from="in" to="out"/>
<trip type="noVar" depart="367" id="Lflow.102" from="in" to="out"/>
<trip type="noVar" depart="371" id="Lflow.103" from="in" to="out"/>
<trip type="noVar" depart="374" id="Lflow.104" from="in" to="out"/>
<trip type="noVar" depart="378" id="Lflow.105" from="in" to="out"/>
<trip type="noVar" depart="379" id="Rflow.21" from="in" to="out"/>
<trip type="noVar" depart="381" id="Lflow.106" from="in" to="out"/>
<trip type="noVar" depart="385" id="Lflow.107" from="in" to="out"/>
<trip type="noVar" depart="389" id="Lflow.108" from="in" to="out"/>
<trip type="noVar" depart="392" id="Lflow.109" from="in" to="out"/>
<trip type="noVar" depart="396" id="Lflow.110" from="in" to="out"/>
<trip type="noVar" depart="397" id="Rflow.22" from="in" to="out"/>
<trip type="noVar" depart="400" id="Lflow.111" from="in" to="out"/>
<trip type="noVar" depart="403" id="Lflow.112" from="in" to="out"/>
<trip type="noVar" depart="407" id="Lflow.113" from="in" to="out"/>
<trip type="noVar" depart="410" id="Lflow.114" from="in" to="out"/>
<trip type="noVar" depart="414" id="Lflow.115" from="in" to="out"/>
<trip type="noVar" depart="416" id="Rflow.23" from="in" to="out"/>
<trip type="noVar" depart="418" id="Lflow.116" from="in" to="out"/>
<trip type="noVar" depart="421" id="Lflow.117" from="in" to="out"/>
<trip type="noVar" depart="425" id="Lflow.118" from="in" to="out"/>
<trip type="noVar" depart="428" id="Lflow.119" from="in" to="out"/>
<trip type="noVar" depart="432" id="Lflow.120" from="in" to="out"/>
<trip type="noVar" depart="434" id="Rflow.24" from="in" to="out"/>
<trip type="noVar" depart="436" id="Lflow.121" from="in" to="out"/>
<trip type="noVar" depart="439" id="Lflow.122" from="in" to="out"/>
<trip type="noVar" depart="443" id="Lflow.123" from="in" to="out"/>
<trip type="noVar" depart="446" id="Lflow.124" from="in" to="out"/>
<trip type="noVar" depart="450" id="Lflow.125" from="in" to="out"/>
<trip type="noVar" depart="452" id="Rflow.25" from="in" to="out"/>
<trip type="noVar" depart="454" id="Lflow.126" from="in" to="out"/>
<trip type="noVar" depart="457" id="Lflow.127" from="in" to="out"/>
<trip type="noVar" depart="461" id="Lflow.128" from="in" to="out"/>
<trip type="noVar" depart="464" id="Lflow.129" from="in" to="out"/>
<trip type="noVar" depart="468" id="Lflow.130" from="in" to="out"/>
<trip type="noVar" depart="470" id="Rflow.26" from="in" to="out"/>
<trip type="noVar" depart="472" id="Lflow.131" from="in" to="out"/>
<trip type="noVar" depart="475" id="Lflow.132" from="in" to="out"/>
<trip type="noVar" depart="479" id="Lflow.133" from="in" to="out"/>
<trip type="noVar" depart="482" id="Lflow.134" from="in" to="out"/>
<trip type="noVar" depart="486" id="Lflow.135" from="in" to="out"/>
<trip type="noVar" depart="488" id="Rflow.27" from="in" to="out"/>
<trip type="noVar" depart="490" id="Lflow.136" from="in" to="out"/>
<trip type="noVar" depart="493" id="Lflow.137" from="in" to="out"/>
<trip type="noVar" depart="497" id="Lflow.138" from="in" to="out"/>
<trip type="noVar" depart="500" id="Lflow.139" from="in" to="out"/>
<trip type="noVar" depart="504" id="Lflow.140" from="in" to="out"/>
<trip type="noVar" depart="506" id="Rflow.28" from="in" to="out"/>
<trip type="noVar" depart="508" id="Lflow.141" from="in" to="out"/>
<trip type="noVar" depart="511" id="Lflow.142" from="in" to="out"/>
<trip type="noVar" depart="515" id="Lflow.143" from="in" to="out"/>
<trip type="noVar" depart="518" id="Lflow.144" from="in" to="out"/>
<trip type="noVar" depart="522" id="Lflow.145" from="in" to="out"/>
<trip type="noVar" depart="524" id="Rflow.29" from="in" to="out"/>
<trip type="noVar" depart="526" id="Lflow.146" from="in" to="out"/>
<trip type="noVar" depart="529" id="Lflow.147" from="in" to="out"/>
<trip type="noVar" depart="533" id="Lflow.148" from="in" to="out"/>
<trip type="noVar" depart="536" id="Lflow.149" from="in" to="out"/>
<trip type="noVar" depart="540" id="Lflow.150" from="in" to="out"/>
<trip type="noVar" depart="542" id="Rflow.30" from="in" to="out"/>
<trip type="noVar" depart="544" id="Lflow.151" from="in" to="out"/>
<trip type="noVar" depart="547" id="Lflow.152" from="in" to="out"/>
<trip type="noVar" depart="551" id="Lflow.153" from="in" to="out"/>
<trip type="noVar" depart="554" id="Lflow.154" from="in" to="out"/>
<trip type="noVar" depart="558" id="Lflow.155" from="in" to="out"/>
<trip type="noVar" depart="560" id="Rflow.31" from="in" to="out"/>
<trip type="noVar" depart="562" id="Lflow.156" from="in" to="out"/>
<trip type="noVar" depart="565" id="Lflow.157" from="in" to="out"/>
<trip type="noVar" depart="569" id="Lflow.158" from="in" to="out"/>
<trip type="noVar" depart="572" id="Lflow.159" from="in" to="out"/>
<trip type="noVar" depart="576" id="Lflow.160" from="in" to="out"/>
<trip type="noVar" depart="578" id="Rflow.32" from="in" to="out"/>
<trip type="noVar" depart="580" id="Lflow.161" from="in" to="out"/>
<trip type="noVar" depart="583" id="Lflow.162" from="in" to="out"/>
<trip type="noVar" depart="587" id="Lflow.163" from="in" to="out"/>
<trip type="noVar" depart="590" id="Lflow.164" from="in" to="out"/>
<trip type="noVar" depart="594" id="Lflow.165" from="in" to="out"/>
<trip type="noVar" depart="596" id="Rflow.33" from="in" to="out"/>
<trip type="noVar" depart="598" id="Lflow.166" from="in" to="out"/>
<trip type="noVar" depart="601" id="Lflow.167" from="in" to="out"/>
<trip type="noVar" depart="605" id="Lflow.168" from="in" to="out"/>
<trip type="noVar" depart="609" id="Lflow.169" from="in" to="out"/>
<trip type="noVar" depart="612" id="Lflow.170" from="in" to="out"/>
<trip type="noVar" depart="615" id="Rflow.34" from="in" to="out"/>
<trip type="noVar" depart="616" id="Lflow.171" from="in" to="out"/>
<trip type="noVar" depart="619" id="Lflow.172" from="in" to="out"/>
<trip type="noVar" depart="623" id="Lflow.173" from="in" to="out"/>
<trip type="noVar" depart="627" id="Lflow.174" from="in" to="out"/>
<trip type="noVar" depart="630" id="Lflow.175" from="in" to="out"/>
<trip type="noVar" depart="633" id="Rflow.35" from="in" to="out"/>
<trip type="noVar" depart="634" id="Lflow.176" from="in" to="out"/>
<trip type="noVar" depart="637" id="Lflow.177" from="in" to="out"/>
<trip type="noVar" depart="641" id="Lflow.178" from="in" to="out"/>
<trip type="noVar" depart="645" id="Lflow.179" from="in" to="out"/>
<trip type="noVar" depart="648" id="Lflow.180" from="in" to="out"/>
<trip type="noVar" depart="651" id="Rflow.36" from="in" to="out"/>
<trip type="noVar" depart="652" id="Lflow.181" from="in" to="out"/>
<trip type="noVar" depart="655" id="Lflow.182" from="in" to="out"/>
<trip type="noVar" depart="659" id="Lflow.183" from="in" to="out"/>
<trip type="noVar" depart="663" id="Lflow.184" from="in" to="out"/>
<trip type="noVar" depart="666" id="Lflow.185" from="in" to="out"/>
<trip type="noVar" depart="669" id="Rflow.37" from="in" to="out"/>
<trip type="noVar" depart="670" id="Lflow.186" from="in" to="out"/>
<trip type="noVar" depart="673" id="Lflow.187" from="in" to="out"/>
<trip type="noVar" depart="677" id="Lflow.188" from="in" to="out"/>
<trip type="noVar" depart="681" id="Lflow.189" from="in" to="out"/>
<trip type="noVar" depart="684" id="Lflow.190" from="in" to="out"/>
<trip type="noVar" depart="687" id="Rflow.38" from="in" to="out"/>
<trip type="noVar" depart="688" id="Lflow.191" from="in" to="out"/>
<trip type="noVar" depart="691" id="Lflow.192" from="in" to="out"/>
<trip type="noVar" depart="695" id="Lflow.193" from="in" to="out"/>
<trip type="noVar" depart="699" id="Lflow.194" from="in" to="out"/>
<trip type="noVar" depart="702" id="Lflow.195" from="in" to="out"/>
<trip type="noVar" depart="705" id="Rflow.39" from="in" to="out"/>
<trip type="noVar" depart="706" id="Lflow.196" from="in" to="out"/>
<trip type="noVar" depart="709" id="Lflow.197" from="in" to="out"/>
<trip type="noVar" depart="713" id="Lflow.198" from="in" to="out"/>
<trip type="noVar" depart="717" id="Lflow.199" from="in" to="out"/>
<trip type="noVar" depart="720" id="Lflow.200" from="in" to="out"/>
<trip type="noVar" depart="723" id="Rflow.40" from="in" to="out"/>
<trip type="noVar" depart="724" id="Lflow.201" from="in" to="out"/>
<trip type="noVar" depart="727" id="Lflow.202" from="in" to="out"/>
<trip type="noVar" depart="731" id="Lflow.203" from="in" to="out"/>
<trip type="noVar" depart="735" id="Lflow.204" from="in" to="out"/>
<trip type="noVar" depart="738" id="Lflow.205" from="in" to="out"/>
<trip type="noVar" depart="741" id="Rflow.41" from="in" to="out"/>
<trip type="noVar" depart="742" id="Lflow.206" from="in" to="out"/>
<trip type="noVar" depart="745" id="Lflow.207" from="in" to="out"/>
<trip type="noVar" depart="749" id="Lflow.208" from="in" to="out"/>
<trip type="noVar" depart="753" id="Lflow.209" from="in" to="out"/>
<trip type="noVar" depart="756" id="Lflow.210" from="in" to="out"/>
<trip type="noVar" depart="759" id="Rflow.42" from="in" to="out"/>
<trip type="noVar" depart="760" id="Lflow.211" from="in" to="out"/>
<trip type="noVar" depart="763" id="Lflow.212" from="in" to="out"/>
<trip type="noVar" depart="767" id="Lflow.213" from="in" to="out"/>
<trip type="noVar" depart="771" id="Lflow.214" from="in" to="out"/>
<trip type="noVar" depart="774" id="Lflow.215" from="in" to="out"/>
<trip type="noVar" depart="777" id="Rflow.43" from="in" to="out"/>
<trip type="noVar" depart="778" id="Lflow.216" from="in" to="out"/>
<trip type="noVar" depart="781" id="Lflow.217" from="in" to="out"/>
<trip type="noVar" depart="785" id="Lflow.218" from="in" to="out"/>
<trip type="noVar" depart="789" id="Lflow.219" from="in" to="out"/>
<trip type="noVar" depart="792" id="Lflow.220" from="in" to="out"/>
<trip type="noVar" depart="795" id="Rflow.44" from="in" to="out"/>
<trip type="noVar" depart="796" id="Lflow.221" from="in" to="out"/>
<trip type="noVar" depart="800" id="Lflow.222" from="in" to="out"/>
<trip type="noVar" depart="803" id="Lflow.223" from="in" to="out"/>
<trip type="noVar" depart="807" id="Lflow.224" from="in" to="out"/>
<trip type="noVar" depart="810" id="Lflow.225" from="in" to="out"/>
<trip type="noVar" depart="814" id="Rflow.45" from="in" to="out"/>
<trip type="noVar" depart="814" id="Lflow.226" from="in" to="out"/>
<trip type="noVar" depart="818" id="Lflow.227" from="in" to="out"/>
<trip type="noVar" depart="821" id="Lflow.228" from="in" to="out"/>
<trip type="noVar" depart="825" id="Lflow.229" from="in" to="out"/>
<trip type="noVar" depart="828" id="Lflow.230" from="in" to="out"/>
<trip type="noVar" depart="832" id="Rflow.46" from="in" to="out"/>
<trip type="noVar" depart="832" id="Lflow.231" from="in" to="out"/>
<trip type="noVar" depart="836" id="Lflow.232" from="in" to="out"/>
<trip type="noVar" depart="839" id="Lflow.233" from="in" to="out"/>
<trip type="noVar" depart="843" id="Lflow.234" from="in" to="out"/>
<trip type="noVar" depart="846" id="Lflow.235" from="in" to="out"/>
<trip type="noVar" depart="850" id="Rflow.47" from="in" to="out"/>
<trip type="noVar" depart="850" id="Lflow.236" from="in" to="out"/>
<trip type="noVar" depart="854" id="Lflow.237" from="in" to="out"/>
<trip type="noVar" depart="857" id="Lflow.238" from="in" to="out"/>
<trip type="noVar" depart="861" id="Lflow.239" from="in" to="out"/>
<trip type="noVar" depart="864" id="Lflow.240" from="in" to="out"/>
<trip type="noVar" depart="868" id="Rflow.48" from="in" to="out"/>
<trip type="noVar" depart="868" id="Lflow.241" from="in" to="out"/>
<trip type="noVar" depart="872" id="Lflow.242" from="in" to="out"/>
<trip type="noVar" depart="875" id="Lflow.243" from="in" to="out"/>
<trip type="noVar" depart="879" id="Lflow.244" from="in" to="out"/>
<trip type="noVar" depart="882" id="Lflow.245" from="in" to="out"/>
<trip type="noVar" depart="886" id="Rflow.49" from="in" to="out"/>
<trip type="noVar" depart="886" id="Lflow.246" from="in" to="out"/>
<trip type="noVar" depart="890" id="Lflow.247" from="in" to="out"/>
<trip type="noVar" depart="893" id="Lflow.248" from="in" to="out"/>
<trip type="noVar" depart="897" id="Lflow.249" from="in" to="out"/>
<trip type="noVar" depart="900" id="Lflow.250" from="in" to="out"/>
<trip type="noVar" depart="904" id="Lflow.251" from="in" to="out"/>
<trip type="noVar" depart="904" id="Rflow.50" from="in" to="out"/>
<trip type="noVar" depart="908" id="Lflow.252" from="in" to="out"/>
<trip type="noVar" depart="911" id="Lflow.253" from="in" to="out"/>
<trip type="noVar" depart="915" id="Lflow.254" from="in" to="out"/>
<trip type="noVar" depart="918" id="Lflow.255" from="in" to="out"/>
<trip type="noVar" depart="922" id="Lflow.256" from="in" to="out"/>
<trip type="noVar" depart="922" id="Rflow.51" from="in" to="out"/>
<trip type="noVar" depart="926" id="Lflow.257" from="in" to="out"/>
<trip type="noVar" depart="929" id="Lflow.258" from="in" to="out"/>
<trip type="noVar" depart="933" id="Lflow.259" from="in" to="out"/>
<trip type="noVar" depart="936" id="Lflow.260" from="in" to="out"/>
<trip type="noVar" depart="940" id="Lflow.261" from="in" to="out"/>
<trip type="noVar" depart="940" id="Rflow.52" from="in" to="out"/>
<trip type="noVar" depart="944" id="Lflow.262" from="in" to="out"/>
<trip type="noVar" depart="947" id="Lflow.263" from="in" to="out"/>
<trip type="noVar" depart="951" id="Lflow.264" from="in" to="out"/>
<trip type="noVar" depart="954" id="Lflow.265" from="in" to="out"/>
<trip type="noVar" depart="958" id="Lflow.266" from="in" to="out"/>
<trip type="noVar" depart="958" id="Rflow.53" from="in" to="out"/>
<trip type="noVar" depart="962" id="Lflow.267" from="in" to="out"/>
<trip type="noVar" depart="965" id="Lflow.268" from="in" to="out"/>
<trip type="noVar" depart="969" id="Lflow.269" from="in" to="out"/>
<trip type="noVar" depart="972" id="Lflow.270" from="in" to="out"/>
<trip type="noVar" depart="976" id="Lflow.271" from="in" to="out"/>
<trip type="noVar" depart="976" id="Rflow.54" from="in" to="out"/>
<trip type="noVar" depart="980" id="Lflow.272" from="in" to="out"/>
<trip type="noVar" depart="983" id="Lflow.273" from="in" to="out"/>
<trip type="noVar" depart="987" id="Lflow.274" from="in" to="out"/>
<trip type="noVar" depart="990" id="Lflow.275" from="in" to="out"/>
<trip type="noVar" depart="994" id="Lflow.276" from="in" to="out"/>
<trip type="noVar" depart="994" id="Rflow.55" from="in" to="out"/>
<trip type="noVar" depart="998" id="Lflow.277" from="in" to="out"/>
<trip type="noVar" depart="1001" id="Lflow.278" from="in" to="out"/>
<trip type="noVar" depart="1005" id="Lflow.279" from="in" to="out"/>
<trip type="noVar" depart="1009" id="Lflow.280" from="in" to="out"/>
<trip type="noVar" depart="1012" id="Lflow.281" from="in" to="out"/>
<trip type="noVar" depart="1013" id="Rflow.56" from="in" to="out"/>
<trip type="noVar" depart="1016" id="Lflow.282" from="in" to="out"/>
<trip type="noVar" depart="1019" id="Lflow.283" from="in" to="out"/>
<trip type="noVar" depart="1023" id="Lflow.284" from="in" to="out"/>
<trip type="noVar" depart="1027" id="Lflow.285" from="in" to="out"/>
<trip type="noVar" depart="1030" id="Lflow.286" from="in" to="out"/>
<trip type="noVar" depart="1031" id="Rflow.57" from="in" to="out"/>
<trip type="noVar" depart="1034" id="Lflow.287" from="in" to="out"/>
<trip type="noVar" depart="1037" id="Lflow.288" from="in" to="out"/>
<trip type="noVar" depart="1041" id="Lflow.289" from="in" to="out"/>
<trip type="noVar" depart="1045" id="Lflow.290" from="in" to="out"/>
<trip type="noVar" depart="1048" id="Lflow.291" from="in" to="out"/>
<trip type="noVar" depart="1049" id="Rflow.58" from="in" to="out"/>
<trip type="noVar" depart="1052" id="Lflow.292" from="in" to="out"/>
<trip type="noVar" depart="1055" id="Lflow.293" from="in" to="out"/>
<trip type="noVar" depart="1059" id="Lflow.294" from="in" to="out"/>
<trip type="noVar" depart="1063" id="Lflow.295" from="in" to="out"/>
<trip type="noVar" depart="1066" id="Lflow.296" from="in" to="out"/>
<trip type="noVar" depart="1067" id="Rflow.59" from="in" to="out"/>
<trip type="noVar" depart="1070" id="Lflow.297" from="in" to="out"/>
<trip type="noVar" depart="1073" id="Lflow.298" from="in" to="out"/>
<trip type="noVar" depart="1077" id="Lflow.299" from="in" to="out"/>
<trip type="noVar" depart="1081" id="Lflow.300" from="in" to="out"/>
<trip type="noVar" depart="1084" id="Lflow.301" from="in" to="out"/>
<trip type="noVar" depart="1085" id="Rflow.60" from="in" to="out"/>
<trip type="noVar" depart="1088" id="Lflow.302" from="in" to="out"/>
<trip type="noVar" depart="1091" id="Lflow.303" from="in" to="out"/>
<trip type="noVar" depart="1095" id="Lflow.304" from="in" to="out"/>
<trip type="noVar" depart="1099" id="Lflow.305" from="in" to="out"/>
<trip type="noVar" depart="1102" id="Lflow.306" from="in" to="out"/>
<trip type="noVar" depart="1103" id="Rflow.61" from="in" to="out"/>
<trip type="noVar" depart="1106" id="Lflow.307" from="in" to="out"/>
<trip type="noVar" depart="1109" id="Lflow.308" from="in" to="out"/>
<trip type="noVar" depart="1113" id="Lflow.309" from="in" to="out"/>
<trip type="noVar" depart="1117" id="Lflow.310" from="in" to="out"/>
<trip type="noVar" depart="1120" id="Lflow.311" from="in" to="out"/>
<trip type="noVar" depart="1121" id="Rflow.62" from="in" to="out"/>
<trip type="noVar" depart="1124" id="Lflow.312" from="in" to="out"/>
<trip type="noVar" depart="1127" id="Lflow.313" from="in" to="out"/>
<trip type="noVar" depart="1131" id="Lflow.314" from="in" to="out"/>
<trip type="noVar" depart="1135" id="Lflow.315" from="in" to="out"/>
<trip type="noVar" depart="1138" id="Lflow.316" from="in" to="out"/>
<trip type="noVar" depart="1139" id="Rflow.63" from="in" to="out"/>
<trip type="noVar" depart="1142" id="Lflow.317" from="in" to="out"/>
<trip type="noVar" depart="1145" id="Lflow.318" from="in" to="out"/>
<trip type="noVar" depart="1149" id="Lflow.319" from="in" to="out"/>
<trip type="noVar" depart="1153" id="Lflow.320" from="in" to="out"/>
<trip type="noVar" depart="1156" id="Lflow.321" from="in" to="out"/>
<trip type="noVar" depart="1157" id="Rflow.64" from="in" to="out"/>
<trip type="noVar" depart="1160" id="Lflow.322" from="in" to="out"/>
<trip type="noVar" depart="1163" id="Lflow.323" from="in" to="out"/>
<trip type="noVar" depart="1167" id="Lflow.324" from="in" to="out"/>
<trip type="noVar" depart="1171" id="Lflow.325" from="in" to="out"/>
<trip type="noVar" depart="1174" id="Lflow.326" from="in" to="out"/>
<trip type="noVar" depart="1175" id="Rflow.65" from="in" to="out"/>
<trip type="noVar" depart="1178" id="Lflow.327" from="in" to="out"/>
<trip type="noVar" depart="1181" id="Lflow.328" from="in" to="out"/>
<trip type="noVar" depart="1185" id="Lflow.329" from="in" to="out"/>
<trip type="noVar" depart="1189" id="Lflow.330" from="in" to="out"/>
<trip type="noVar" depart="1192" id="Lflow.331" from="in" to="out"/>
<trip type="noVar" depart="1193" id="Rflow.66" from="in" to="out"/>
<trip type="noVar" depart="1196" id="Lflow.332" from="in" to="out"/>
<trip type="noVar" depart="1200" id="Lflow.333" from="in" to="out"/>
<trip type="noVar" depart="1203" id="Lflow.334" from="in" to="out"/>
<trip type="noVar" depart="1207" id="Lflow.335" from="in" to="out"/>
<trip type="noVar" depart="1210" id="Lflow.336" from="in" to="out"/>
<trip type="noVar" depart="1212" id="Rflow.67" from="in" to="out"/>
<trip type="noVar" depart="1214" id="Lflow.337" from="in" to="out"/>
<trip type="noVar" depart="1218" id="Lflow.338" from="in" to="out"/>
<trip type="noVar" depart="1221" id="Lflow.339" from="in" to="out"/>
<trip type="noVar" depart="1225" id="Lflow.340" from="in" to="out"/>
<trip type="noVar" depart="1228" id="Lflow.341" from="in" to="out"/>
<trip type="noVar" depart="1230" id="Rflow.68" from="in" to="out"/>
<trip type="noVar" depart="1232" id="Lflow.342" from="in" to="out"/>
<trip type="noVar" depart="1236" id="Lflow.343" from="in" to="out"/>
<trip type="noVar" depart="1239" id="Lflow.344" from="in" to="out"/>
<trip type="noVar" depart="1243" id="Lflow.345" from="in" to="out"/>
<trip type="noVar" depart="1246" id="Lflow.346" from="in" to="out"/>
<trip type="noVar" depart="1248" id="Rflow.69" from="in" to="out"/>
<trip type="noVar" depart="1250" id="Lflow.347" from="in" to="out"/>
<trip type="noVar" depart="1254" id="Lflow.348" from="in" to="out"/>
<trip type="noVar" depart="1257" id="Lflow.349" from="in" to="out"/>
<trip type="noVar" depart="1261" id="Lflow.350" from="in" to="out"/>
<trip type="noVar" depart="1264" id="Lflow.351" from="in" to="out"/>
<trip type="noVar" depart="1266" id="Rflow.70" from="in" to="out"/>
<trip type="noVar" depart="1268" id="Lflow.352" from="in" to="out"/>
<trip type="noVar" depart="1272" id="Lflow.353" from="in" to="out"/>
<trip type="noVar" depart="1275" id="Lflow.354" from="in" to="out"/>
<trip type="noVar" depart="1279" id="Lflow.355" from="in" to="out"/>
<trip type="noVar" depart="1282" id="Lflow.356" from="in" to="out"/>
<trip type="noVar" depart="1284" id="Rflow.71" from="in" to="out"/>
<trip type="noVar" depart="1286" id="Lflow.357" from="in" to="out"/>
<trip type="noVar" depart="1290" id="Lflow.358" from="in" to="out"/>
<trip type="noVar" depart="1293" id="Lflow.359" from="in" to="out"/>
<trip type="noVar" depart="1297" id="Lflow.360" from="in" to="out"/>
<trip type="noVar" depart="1300" id="Lflow.361" from="in" to="out"/>
<trip type="noVar" depart="1302" id="Rflow.72" from="in" to="out"/>
<trip type="noVar" depart="1304" id="Lflow.362" from="in" to="out"/>
<trip type="noVar" depart="1308" id="Lflow.363" from="in" to="out"/>
<trip type="noVar" depart="1311" id="Lflow.364" from="in" to="out"/>
<trip type="noVar" depart="1315" id="Lflow.365" from="in" to="out"/>