<?xml version="1.0" encoding="UTF-8"?>
<routes xmlns:xsi="http://www.w3.org/2001/XMLSchema-instance" xsi:noNamespaceSchemaLocation="http://sumo.dlr.de/xsd/routes_file.xsd">

<vType id="noVar" speedFactor="1.0" speedDev="0.0"/>
<route id="route_Lflow.0" edges="in L1 L2 out" />
<vehicle type="noVar" depart="0" id="Lflow.0" route="route_Lflow.0" />
<route id="route_Rflow.0" edges="in L1 L2 out" />
<vehicle type="noVar" depart="0" id="Rflow.0" route="route_Rflow.0" />
<route id="route_Lflow.1" edges="in L1 L2 out" />
<vehicle type="noVar" depart="3" id="Lflow.1" route="route_Lflow.1" />
<route id="route_Lflow.2" edges="in L1 L2 out" />
<vehicle type="noVar" depart="7" id="Lflow.2" route="route_Lflow.2" />
<route id="route_Lflow.3" edges="in L1 L2 out" />
<vehicle type="noVar" depart="10" id="Lflow.3" route="route_Lflow.3" />
<route id="route_Lflow.4" edges="in L1 L2 out" />
<vehicle type="noVar" depart="14" id="Lflow.4" route="route_Lflow.4" />
<route id="route_Lflow.5" edges="in L1 L2 out" />
<vehicle type="noVar" depart="18" id="Lflow.5" route="route_Lflow.5" />
<route id="route_Rflow.1" edges="in L1 L2 out" />
<vehicle type="noVar" depart="18" id="Rflow.1" route="route_Rflow.1" />
<route id="route_Lflow.6" edges="in L1 L2 out" />
<vehicle type="noVar" depart="21" id="Lflow.6" route="route_Lflow.6" />
<route id="route_Lflow.7" edges="in L1 L2 out" />
<vehicle type="noVar" depart="25" id="Lflow.7" route="route_Lflow.7" />
<route id="route_Lflow.8" edges="in L1 L2 out" />
<vehicle type="noVar" depart="28" id="Lflow.8" route="route_Lflow.8" />
<route id="route_Lflow.9" edges="in L1 L2 out" />
<vehicle type="noVar" depart="32" id="Lflow.9" route="route_Lflow.9" />
<route id="route_Lflow.10" edges="in L1 L2 out" />
<vehicle type="noVar" depart="36" id="Lflow.10" route="route_Lflow.10" />
<route id="route_Rflow.2" edges="in L1 L2 out" />
<vehicle type="noVar" depart="36" id="Rflow.2" route="route_Rflow.2" />
<route id="route_Lflow.11" edges="in L1 L2 out" />
<vehicle type="noVar" depart="39" id="Lflow.11" route="route_Lflow.11" />
<route id="route_Lflow.12" edges="in L1 L2 out" />
<vehicle type="noVar" depart="43" id="Lflow.12" route="route_Lflow.12" />
<route id="route_Lflow.13" edges="in L1 L2 out" />
<vehicle type="noVar" depart="46" id="Lflow.13" route="route_Lflow.13" />
<route id="route_Lflow.14" edges="in L1 L2 out" />
<vehicle type="noVar" depart="50" id="Lflow.14" route="route_Lflow.14" />
<route id="route_Lflow.15" edges="in L1 L2 out" />
<vehicle type="noVar" depart="54" id="Lflow.15" route="route_Lflow.15" />
<route id="route_Rflow.3" edges="in L1 L2 out" />
<vehicle type="noVar" depart="54" id="Rflow.3" route="route_Rflow.3" />
<route id="route_Lflow.16" edges="in L1 L2 out" />
<vehicle type="noVar" depart="57" id="Lflow.16" route="route_Lflow.16" />
<route id="route_Lflow.17" edges="in L1 L2 out" />
<vehicle type="noVar" depart="61" id="Lflow.17" route="route_Lflow.17" />
<route id="route_Lflow.18" edges="in L1 L2 out" />
<vehicle type="noVar" depart="64" id="Lflow.18" route="route_Lflow.18" />
<route id="route_Lflow.19" edges="in L1 L2 out" />
<vehicle type="noVar" depart="68" id="Lflow.19" route="route_Lflow.19" />
<route id="route_Lflow.20" edges="in L1 L2 out" />
<vehicle type="noVar" depart="72" id="Lflow.20" route="route_Lflow.20" />
<route id="route_Rflow.4" edges="in L1 L2 out" />
<vehicle type="noVar" depart="72" id="Rflow.4" route="route_Rflow.4" />
<route id="route_Lflow.21" edges="in L1 L2 out" />
<vehicle type="noVar" depart="75" id="Lflow.21" route="route_Lflow.21" />
<route id="route_Lflow.22" edges="in L1 L2 out" />
<vehicle type="noVar" depart="79" id="Lflow.22" route="route_Lflow.22" />
<route id="route_Lflow.23" edges="in L1 L2 out" />
<vehicle type="noVar" depart="82" id="Lflow.23" route="route_Lflow.23" />
<route id="route_Lflow.24" edges="in L1 L2 out" />
<vehicle type="noVar" depart="86" id="Lflow.24" route="route_Lflow.24" />
<route id="route_Lflow.25" edges="in L1 L2 out" />
<vehicle type="noVar" depart="90" id="Lflow.25" route="route_Lflow.25" />
<route id="route_Rflow.5" edges="in L1 L2 out" />
<vehicle type="noVar" depart="90" id="Rflow.5" route="route_Rflow.5" />
<route id="route_Lflow.26" edges="in L1 L2 out" />
<vehicle type="noVar" depart="93" id="Lflow.26" route="route_Lflow.26" />
<route id="route_Lflow.27" edges="in L1 L2 out" />
<vehicle type="noVar" depart="97" id="Lflow.27" route="route_Lflow.27" />
<route id="route_Lflow.28" edges="in L1 L2 out" />
<vehicle type="noVar" depart="100" id="Lflow.28" route="route_Lflow.28" />
<route id="route_Lflow.29" edges="in L1 L2 out" />
<vehicle type="noVar" depart="104" id="Lflow.29" route="route_Lflow.29" />
<route id="route_Lflow.30" edges="in L1 L2 out" />
<vehicle type="noVar" depart="108" id="Lflow.30" route="route_Lflow.30" />
<route id="route_Rflow.6" edges="in L1 L2 out" />
<vehicle type="noVar" depart="108" id="Rflow.6" route="route_Rflow.6" />
<route id="route_Lflow.31" edges="in L1 L2 out" />
<vehicle type="noVar" depart="111" id="Lflow.31" route="route_Lflow.31" />
<route id="route_Lflow.32" edges="in L1 L2 out" />
<vehicle type="noVar" depart="115" id="Lflow.32" route="route_Lflow.32" />
<route id="route_Lflow.33" edges="in L1 L2 out" />
<vehicle type="noVar" depart="118" id="Lflow.33" route="route_Lflow.33" />
<route id="route_Lflow.34" edges="in L1 L2 out" />
<vehicle type="noVar" depart="122" id="Lflow.34" route="route_Lflow.34" />
<route id="route_Lflow.35" edges="in L1 L2 out" />
<vehicle type="noVar" depart="126" id="Lflow.35" route="route_Lflow.35" />
<route id="route_Rflow.7" edges="in L1 L2 out" />
<vehicle type="noVar" depart="126" id="Rflow.7" route="route_Rflow.7" />
<route id="route_Lflow.36" edges="in L1 L2 out" />
<vehicle type="noVar" depart="129" id="Lflow.36" route="route_Lflow.36" />
<route id="route_Lflow.37" edges="in L1 L2 out" />
<vehicle type="noVar" depart="133" id="Lflow.37" route="route_Lflow.37" />
<route id="route_Lflow.38" edges="in L1 L2 out" />
<vehicle type="noVar" depart="136" id="Lflow.38" route="route_Lflow.38" />
<route id="route_Lflow.39" edges="in L1 L2 out" />
<vehicle type="noVar" depart="140" id="Lflow.39" route="route_Lflow.39" />
<route id="route_Lflow.40" edges="in L1 L2 out" />
<vehicle type="noVar" depart="144" id="Lflow.40" route="route_Lflow.40" />
<route id="route_Rflow.8" edges="in L1 L2 out" />
<vehicle type="noVar" depart="144" id="Rflow.8" route="route_Rflow.8" />
<route id="route_Lflow.41" edges="in L1 L2 out" />
<vehicle type="noVar" depart="147" id="Lflow.41" route="route_Lflow.41" />
<route id="route_Lflow.42" edges="in L1 L2 out" />
<vehicle type="noVar" depart="151" id="Lflow.42" route="route_Lflow.42" />
<route id="route_Lflow.43" edges="in L1 L2 out" />
<vehicle type="noVar" depart="154" id="Lflow.43" route="route_Lflow.43" />
<route id="route_Lflow.44" edges="in L1 L2 out" />
<vehicle type="noVar" depart="158" id="Lflow.44" route="route_Lflow.44" />
<route id="route_Lflow.45" edges="in L1 L2 out" />
<vehicle type="noVar" depart="162" id="Lflow.45" route="route_Lflow.45" />
<route id="route_Rflow.9" edges="in L1 L2 out" />
<vehicle type="noVar" depart="162" id="Rflow.9" route="route_Rflow.9" />
<route id="route_Lflow.46" edges="in L1 L2 out" />
<vehicle type="noVar" depart="165" id="Lflow.46" route="route_Lflow.46" />
<route id="route_Lflow.47" edges="in L1 L2 out" />
<vehicle type="noVar" depart="169" id="Lflow.47" route="route_Lflow.47" />
<route id="route_Lflow.48" edges="in L1 L2 out" />
<vehicle type="noVar" depart="172" id="Lflow.48" route="route_Lflow.48" />
<route id="route_Lflow.49" edges="in L1 L2 out" />
<vehicle type="noVar" depart="176" id="Lflow.49" route="route_Lflow.49" />
<route id="route_Lflow.50" edges="in L1 L2 out" />
<vehicle type="noVar" depart="180" id="Lflow.50" route="route_Lflow.50" />
<route id="route_Rflow.10" edges="in L1 L2 out" />
<vehicle type="noVar" depart="180" id="Rflow.10" route="route_Rflow.10" />
<route id="route_Lflow.51" edges="in L1 L2 out" />
<vehicle type="noVar" depart="183" id="Lflow.51" route="route_Lflow.51" />
<route id="route_Lflow.52" edges="in R1 R2 out" />
<vehicle type="noVar" depart="187" id="Lflow.52" route="route_Lflow.52" />
<route id="route_Lflow.53" edges="in R1 R2 out" />
<vehicle type="noVar" depart="190" id="Lflow.53" route="route_Lflow.53" />
<route id="route_Lflow.54" edges="in R1 R2 out" />
<vehicle type="noVar" depart="194" id="Lflow.54" route="route_Lflow.54" />
<route id="route_Lflow.55" edges="in R1 R2 out" />
<vehicle type="noVar" depart="198" id="Lflow.55" route="route_Lflow.55" />
<route id="route_Rflow.11" edges="in R1 R2 out" />
<vehicle type="noVar" depart="198" id="Rflow.11" route="route_Rflow.11" />
<route id="route_Lflow.56" edges="in R1 R2 out" />
<vehicle type="noVar" depart="201" id="Lflow.56" route="route_Lflow.56" />
<route id="route_Lflow.57" edges="in R1 R2 out" />
<vehicle type="noVar" depart="205" id="Lflow.57" route="route_Lflow.57" />
<route id="route_Lflow.58" edges="in R1 R2 out" />
<vehicle type="noVar" depart="209" id="Lflow.58" route="route_Lflow.58" />
<route id="route_Lflow.59" edges="in R1 R2 out" />
<vehicle type="noVar" depart="212" id="Lflow.59" route="route_Lflow.59" />
<route id="route_Lflow.60" edges="in R1 R2 out" />
<vehicle type="noVar" depart="216" id="Lflow.60" route="route_Lflow.60" />
<route id="route_Rflow.12" edges="in R1 R2 out" />
<vehicle type="noVar" depart="217" id="Rflow.12" route="route_Rflow.12" />
<route id="route_Lflow.61" edges="in R1 R2 out" />
<vehicle type="noVar" depart="219" id="Lflow.61" route="route_Lflow.61" />
<route id="route_Lflow.62" edges="in R1 R2 out" />
<vehicle type="noVar" depart="223" id="Lflow.62" route="route_Lflow.62" />
<route id="route_Lflow.63" edges="in R1 R2 out" />
<vehicle type="noVar" depart="227" id="Lflow.63" route="route_Lflow.63" />
<route id="route_Lflow.64" edges="in R1 R2 out" />
<vehicle type="noVar" depart="230" id="Lflow.64" route="route_Lflow.64" />
<route id="route_Lflow.65" edges="in R1 R2 out" />
<vehicle type="noVar" depart="234" id="Lflow.65" route="route_Lflow.65" />
<route id="route_Rflow.13" edges="in R1 R2 out" />
<vehicle type="noVar" depart="235" id="Rflow.13" route="route_Rflow.13" />
<route id="route_Lflow.66" edges="in R1 R2 out" />
<vehicle type="noVar" depart="237" id="Lflow.66" route="route_Lflow.66" />
<route id="route_Lflow.67" edges="in R1 R2 out" />
<vehicle type="noVar" depart="241" id="Lflow.67" route="route_Lflow.67" />
<route id="route_Lflow.68" edges="in R1 R2 out" />
<vehicle type="noVar" depart="245" id="Lflow.68" route="route_Lflow.68" />
<route id="route_Lflow.69" edges="in R1 R2 out" />
<vehicle type="noVar" depart="248" id="Lflow.69" route="route_Lflow.69" />
<route id="route_Lflow.70" edges="in R1 R2 out" />
<vehicle type="noVar" depart="252" id="Lflow.70" route="route_Lflow.70" />
<route id="route_Rflow.14" edges="in R1 R2 out" />
<vehicle type="noVar" depart="253" id="Rflow.14" route="route_Rflow.14" />
<route id="route_Lflow.71" edges="in R1 R2 out" />
<vehicle type="noVar" depart="255" id="Lflow.71" route="route_Lflow.71" />
<route id="route_Lflow.72" edges="in L1 L2 out" />
<vehicle type="noVar" depart="259" id="Lflow.72" route="route_Lflow.72" />
<route id="route_Lflow.73" edges="in L1 L2 out" />
<vehicle type="noVar" depart="263" id="Lflow.73" route="route_Lflow.73" />
<route id="route_Lflow.74" edges="in L1 L2 out" />
<vehicle type="noVar" depart="266" id="Lflow.74" route="route_Lflow.74" />
<route id="route_Lflow.75" edges="in L1 L2 out" />
<vehicle type="noVar" depart="270" id="Lflow.75" route="route_Lflow.75" />
<route id="route_Rflow.15" edges="in L1 L2 out" />
<vehicle type="noVar" depart="271" id="Rflow.15" route="route_Rflow.15" />
<route id="route_Lflow.76" edges="in L1 L2 out" />
<vehicle type="noVar" depart="273" id="Lflow.76" route="route_Lflow.76" />
<route id="route_Lflow.77" edges="in L1 L2 out" />
<vehicle type="noVar" depart="277" id="Lflow.77" route="route_Lflow.77" />
<route id="route_Lflow.78" edges="in L1 L2 out" />
<vehicle type="noVar" depart="281" id="Lflow.78" route="route_Lflow.78" />
<route id="route_Lflow.79" edges="in L1 L2 out" />
<vehicle type="noVar" depart="284" id="Lflow.79" route="route_Lflow.79" />
<route id="route_Lflow.80" edges="in L1 L2 out" />
<vehicle type="noVar" depart="288" id="Lflow.80" route="route_Lflow.80" />
<route id="route_Rflow.16" edges="in L1 L2 out" />
<vehicle type="noVar" depart="289" id="Rflow.16" route="route_Rflow.16" />
<route id="route_Lflow.81" edges="in L1 L2 out" />
<vehicle type="noVar" depart="291" id="Lflow.81" route="route_Lflow.81" />
<route id="route_Lflow.82" edges="in L1 L2 out" />
<vehicle type="noVar" depart="295" id="Lflow.82" route="route_Lflow.82" />
<route id="route_Lflow.83" edges="in L1 L2 out" />
<vehicle type="noVar" depart="299" id="Lflow.83" route="route_Lflow.83" />
<route id="route_Lflow.84" edges="in L1 L2 out" />
<vehicle type="noVar" depart="302" id="Lflow.84" route="route_Lflow.84" />
<route id="route_Lflow.85" edges="in L1 L2 out" />
<vehicle type="noVar" depart="306" id="Lflow.85" route="route_Lflow.85" />
<route id="route_Rflow.17" edges="in L1 L2 out" />
<vehicle type="noVar" depart="307" id="Rflow.17" route="route_Rflow.17" />
<route id="route_Lflow.86" edges="in L1 L2 out" />
<vehicle type="noVar" depart="309" id="Lflow.86" route="route_Lflow.86" />
<route id="route_Lflow.87" edges="in L1 L2 out" />
<vehicle type="noVar" depart="313" id="Lflow.87" route="route_Lflow.87" />
<route id="route_Lflow.88" edges="in L1 L2 out" />
<vehicle type="noVar" depart="317" id="Lflow.88" route="route_Lflow.88" />
<route id="route_Lflow.89" edges="in L1 L2 out" />
<vehicle type="noVar" depart="320" id="Lflow.89" route="route_Lflow.89" />
<route id="route_Lflow.90" edges="in L1 L2 out" />
<vehicle type="noVar" depart="324" id="Lflow.90" route="route_Lflow.90" />
<route id="route_Rflow.18" edges="in L1 L2 out" />
<vehicle type="noVar" depart="325" id="Rflow.18" route="route_Rflow.18" />
<route id="route_Lflow.91" edges="in L1 L2 out" />
<vehicle type="noVar" depart="327" id="Lflow.91" route="route_Lflow.91" />
<route id="route_Lflow.92" edges="in L1 L2 out" />
<vehicle type="noVar" depart="331" id="Lflow.92" route="route_Lflow.92" />
<route id="route_Lflow.93" edges="in L1 L2 out" />
<vehicle type="noVar" depart="335" id="Lflow.93" route="route_Lflow.93" />
<route id="route_Lflow.94" edges="in L1 L2 out" />
<vehicle type="noVar" depart="338" id="Lflow.94" route="route_Lflow.94" />
<route id="route_Lflow.95" edges="in L1 L2 out" />
<vehicle type="noVar" depart="342" id="Lflow.95" route="route_Lflow.95" />
<route id="route_Rflow.19" edges="in L1 L2 out" />
<vehicle type="noVar" depart="343" id="Rflow.19" route="route_Rflow.19" />
<route id="route_Lflow.96" edges="in L1 L2 out" />
<vehicle type="noVar" depart="345" id="Lflow.96" route="route_Lflow.96" />
<route id="route_Lflow.97" edges="in L1 L2 out" />
<vehicle type="noVar" depart="349" id="Lflow.97" route="route_Lflow.97" />
<route id="route_Lflow.98" edges="in L1 L2 out" />
<vehicle type="noVar" depart="353" id="Lflow.98" route="route_Lflow.98" />
<route id="route_Lflow.99" edges="in L1 L2 out" />
<vehicle type="noVar" depart="356" id="Lflow.99" route="route_Lflow.99" />
<route id="route_Lflow.100" edges="in L1 L2 out" />
<vehicle type="noVar" depart="360" id="Lflow.100" route="route_Lflow.100" />
<route id="route_Rflow.20" edges="in L1 L2 out" />
<vehicle type="noVar" depart="361" id="Rflow.20" route="route_Rflow.20" />
<route id="route_Lflow.101" edges="in L1 L2 out" />
<vehicle type="noVar" depart="363" id="Lflow.101" route="route_Lflow.101" />
<route id="route_Lflow.102" edges="in L1 L2 out" />
<vehicle type="noVar" depart="367" id="Lflow.102" route="route_Lflow.102" />
<route id="route_Lflow.103" edges="in L1 L2 out" />
<vehicle type="noVar" depart="371" id="Lflow.103" route="route_Lflow.103" />
<route id="route_Lflow.104" edges="in L1 L2 out" />
<vehicle type="noVar" depart="374" id="Lflow.104" route="route_Lflow.104" />
<route id="route_Lflow.105" edges="in L1 L2 out" />
<vehicle type="noVar" depart="378" id="Lflow.105" route="route_Lflow.105" />
<route id="route_Rflow.21" edges="in L1 L2 out" />
<vehicle type="noVar" depart="379" id="Rflow.21" route="route_Rflow.21" />
<route id="route_Lflow.106" edges="in L1 L2 out" />
<vehicle type="noVar" depart="381" id="Lflow.106" route="route_Lflow.106" />
<route id="route_Lflow.107" edges="in L1 L2 out" />
<vehicle type="noVar" depart="385" id="Lflow.107" route="route_Lflow.107" />
<route id="route_Lflow.108" edges="in L1 L2 out" />
<vehicle type="noVar" depart="389" id="Lflow.108" route="route_Lflow.108" />
<route id="route_Lflow.109" edges="in L1 L2 out" />
<vehicle type="noVar" depart="392" id="Lflow.109" route="route_Lflow.109" />
<route id="route_Lflow.110" edges="in L1 L2 out" />
<vehicle type="noVar" depart="396" id="Lflow.110" route="route_Lflow.110" />
<route id="route_Rflow.22" edges="in L1 L2 out" />
<vehicle type="noVar" depart="397" id="Rflow.22" route="route_Rflow.22" />
<route id="route_Lflow.111" edges="in L1 L2 out" />
<vehicle type="noVar" depart="400" id="Lflow.111" route="route_Lflow.111" />
<route id="route_Lflow.112" edges="in L1 L2 out" />
<vehicle type="noVar" depart="403" id="Lflow.112" route="route_Lflow.112" />
<route id="route_Lflow.113" edges="in L1 L2 out" />
<vehicle type="noVar" depart="407" id="Lflow.113" route="route_Lflow.113" />
<route id="route_Lflow.114" edges="in L1 L2 out" />
<vehicle type="noVar" depart="410" id="Lflow.114" route="route_Lflow.114" />
<route id="route_Lflow.115" edges="in L1 L2 out" />
<vehicle type="noVar" depart="414" id="Lflow.115" route="route_Lflow.115" />
<route id="route_Rflow.23" edges="in L1 L2 out" />
<vehicle type="noVar" depart="416" id="Rflow.23" route="route_Rflow.23" />
<route id="route_Lflow.116" edges="in L1 L2 out" />
<vehicle type="noVar" depart="418" id="Lflow.116" route="route_Lflow.116" />
<route id="route_Lflow.117" edges="in L1 L2 out" />
<vehicle type="noVar" depart="421" id="Lflow.117" route="route_Lflow.117" />
<route id="route_Lflow.118" edges="in L1 L2 out" />
<vehicle type="noVar" depart="425" id="Lflow.118" route="route_Lflow.118" />
<route id="route_Lflow.119" edges="in L1 L2 out" />
<vehicle type="noVar" depart="428" id="Lflow.119" route="route_Lflow.119" />
<route id="route_Lflow.120" edges="in L1 L2 out" />
<vehicle type="noVar" depart="432" id="Lflow.120" route="route_Lflow.120" />
<route id="route_Rflow.24" edges="in L1 L2 out" />
<vehicle type="noVar" depart="434" id="Rflow.24" route="route_Rflow.24" />
<route id="route_Lflow.121" edges="in L1 L2 out" />
<vehicle type="noVar" depart="436" id="Lflow.121" route="route_Lflow.121" />
<route id="route_Lflow.122" edges="in L1 L2 out" />
<vehicle type="noVar" depart="439" id="Lflow.122" route="route_Lflow.122" />
<route id="route_Lflow.123" edges="in L1 L2 out" />
<vehicle type="noVar" depart="443" id="Lflow.123" route="route_Lflow.123" />
<route id="route_Lflow.124" edges="in L1 L2 out" />
<vehicle type="noVar" depart="446" id="Lflow.124" route="route_Lflow.124" />
<route id="route_Lflow.125" edges="in L1 L2 out" />
<vehicle type="noVar" depart="450" id="Lflow.125" route="route_Lflow.125" />
<route id="route_Rflow.25" edges="in L1 L2 out" />
<vehicle type="noVar" depart="452" id="Rflow.25" route="route_Rflow.25" />
<route id="route_Lflow.126" edges="in L1 L2 out" />
<vehicle type="noVar" depart="454" id="Lflow.126" route="route_Lflow.126" />
<route id="route_Lflow.127" edges="in L1 L2 out" />
<vehicle type="noVar" depart="457" id="Lflow.127" route="route_Lflow.127" />
<route id="route_Lflow.128" edges="in L1 L2 out" />
<vehicle type="noVar" depart="461" id="Lflow.128" route="route_Lflow.128" />
<route id="route_Lflow.129" edges="in R1 R2 out" />
<vehicle type="noVar" depart="464" id="Lflow.129" route="route_Lflow.129" />
<route id="route_Lflow.130" edges="in R1 R2 out" />
<vehicle type="noVar" depart="468" id="Lflow.130" route="route_Lflow.130" />
<route id="route_Rflow.26" edges="in R1 R2 out" />
<vehicle type="noVar" depart="470" id="Rflow.26" route="route_Rflow.26" />
<route id="route_Lflow.131" edges="in R1 R2 out" />
<vehicle type="noVar" depart="472" id="Lflow.131" route="route_Lflow.131" />
<route id="route_Lflow.132" edges="in R1 R2 out" />
<vehicle type="noVar" depart="475" id="Lflow.132" route="route_Lflow.132" />
<route id="route_Lflow.133" edges="in R1 R2 out" />
<vehicle type="noVar" depart="479" id="Lflow.133" route="route_Lflow.133" />
<route id="route_Lflow.134" edges="in R1 R2 out" />
<vehicle type="noVar" depart="482" id="Lflow.134" route="route_Lflow.134" />
<route id="route_Lflow.135" edges="in R1 R2 out" />
<vehicle type="noVar" depart="486" id="Lflow.135" route="route_Lflow.135" />
<route id="route_Rflow.27" edges="in R1 R2 out" />
<vehicle type="noVar" depart="488" id="Rflow.27" route="route_Rflow.27" />
<route id="route_Lflow.136" edges="in R1 R2 out" />
<vehicle type="noVar" depart="490" id="Lflow.136" route="route_Lflow.136" />
<route id="route_Lflow.137" edges="in R1 R2 out" />
<vehicle type="noVar" depart="493" id="Lflow.137" route="route_Lflow.137" />
<route id="route_Lflow.138" edges="in R1 R2 out" />
<vehicle type="noVar" depart="497" id="Lflow.138" route="route_Lflow.138" />
<route id="route_Lflow.139" edges="in R1 R2 out" />
<vehicle type="noVar" depart="500" id="Lflow.139" route="route_Lflow.139" />
<route id="route_Lflow.140" edges="in R1 R2 out" />
<vehicle type="noVar" depart="504" id="Lflow.140" route="route_Lflow.140" />
<route id="route_Rflow.28" edges="in R1 R2 out" />
<vehicle type="noVar" depart="506" id="Rflow.28" route="route_Rflow.28" />
<route id="route_Lflow.141" edges="in R1 R2 out" />
<vehicle type="noVar" depart="508" id="Lflow.141" route="route_Lflow.141" />
<route id="route_Lflow.142" edges="in R1 R2 out" />
<vehicle type="noVar" depart="511" id="Lflow.142" route="route_Lflow.142" />
<route id="route_Lflow.143" edges="in R1 R2 out" />
<vehicle type="noVar" depart="515" id="Lflow.143" route="route_Lflow.143" />
<route id="route_Lflow.144" edges="in R1 R2 out" />
<vehicle type="noVar" depart="518" id="Lflow.144" route="route_Lflow.144" />
<route id="route_Lflow.145" edges="in R1 R2 out" />
<vehicle type="noVar" depart="522" id="Lflow.145" route="route_Lflow.145" />
<route id="route_Rflow.29" edges="in R1 R2 out" />
<vehicle type="noVar" depart="524" id="Rflow.29" route="route_Rflow.29" />
<route id="route_Lflow.146" edges="in R1 R2 out" />
<vehicle type="noVar" depart="526" id="Lflow.146" route="route_Lflow.146" />
<route id="route_Lflow.147" edges="in R1 R2 out" />
<vehicle type="noVar" depart="529" id="Lflow.147" route="route_Lflow.147" />
<route id="route_Lflow.148" edges="in R1 R2 out" />
<vehicle type="noVar" depart="533" id="Lflow.148" route="route_Lflow.148" />
<route id="route_Lflow.149" edges="in R1 R2 out" />
<vehicle type="noVar" depart="536" id="Lflow.149" route="route_Lflow.149" />
<route id="route_Lflow.150" edges="in L1 L2 out" />
<vehicle type="noVar" depart="540" id="Lflow.150" route="route_Lflow.150" />
<route id="route_Rflow.30" edges="in L1 L2 out" />
<vehicle type="noVar" depart="542" id="Rflow.30" route="route_Rflow.30" />
<route id="route_Lflow.151" edges="in L1 L2 out" />
<vehicle type="noVar" depart="544" id="Lflow.151" route="route_Lflow.151" />
<route id="route_Lflow.152" edges="in L1 L2 out" />
<vehicle type="noVar" depart="547" id="Lflow.152" route="route_Lflow.152" />
<route id="route_Lflow.153" edges="in L1 L2 out" />
<vehicle type="noVar" depart="551" id="Lflow.153" route="route_Lflow.153" />
<route id="route_Lflow.154" edges="in L1 L2 out" />
<vehicle type="noVar" depart="554" id="Lflow.154" route="route_Lflow.154" />
<route id="route_Lflow.155" edges="in L1 L2 out" />
<vehicle type="noVar" depart="558" id="Lflow.155" route="route_Lflow.155" />
<route id="route_Rflow.31" edges="in L1 L2 out" />
<vehicle type="noVar" depart="560" id="Rflow.31" route="route_Rflow.31" />
<route id="route_Lflow.156" edges="in L1 L2 out" />
<vehicle type="noVar" depart="562" id="Lflow.156" route="route_Lflow.156" />
<route id="route_Lflow.157" edges="in L1 L2 out" />
<vehicle type="noVar" depart="565" id="Lflow.157" route="route_Lflow.157" />
<route id="route_Lflow.158" edges="in L1 L2 out" />
<vehicle type="noVar" depart="569" id="Lflow.158" route="route_Lflow.158" />
<route id="route_Lflow.159" edges="in L1 L2 out" />
<vehicle type="noVar" depart="572" id="Lflow.159" route="route_Lflow.159" />
<route id="route_Lflow.160" edges="in L1 L2 out" />
<vehicle type="noVar" depart="576" id="Lflow.160" route="route_Lflow.160" />
<route id="route_Rflow.32" edges="in L1 L2 out" />
<vehicle type="noVar" depart="578" id="Rflow.32" route="route_Rflow.32" />
<route id="route_Lflow.161" edges="in L1 L2 out" />
<vehicle type="noVar" depart="580" id="Lflow.161" route="route_Lflow.161" />
<route id="route_Lflow.162" edges="in L1 L2 out" />
<vehicle type="noVar" depart="583" id="Lflow.162" route="route_Lflow.162" />
<route id="route_Lflow.163" edges="in L1 L2 out" />
<vehicle type="noVar" depart="587" id="Lflow.163" route="route_Lflow.163" />
<route id="route_Lflow.164" edges="in L1 L2 out" />
<vehicle type="noVar" depart="590" id="Lflow.164" route="route_Lflow.164" />
<route id="route_Lflow.165" edges="in L1 L2 out" />
<vehicle type="noVar" depart="594" id="Lflow.165" route="route_Lflow.165" />
<route id="route_Rflow.33" edges="in L1 L2 out" />
<vehicle type="noVar" depart="596" id="Rflow.33" route="route_Rflow.33" />
<route id="route_Lflow.166" edges="in L1 L2 out" />
<vehicle type="noVar" depart="598" id="Lflow.166" route="route_Lflow.166" />
<route id="route_Lflow.167" edges="in L1 L2 out" />
<vehicle type="noVar" depart="601" id="Lflow.167" route="route_Lflow.167" />
<route id="route_Lflow.168" edges="in L1 L2 out" />
<vehicle type="noVar" depart="605" id="Lflow.168" route="route_Lflow.168" />
<route id="route_Lflow.169" edges="in L1 L2 out" />
<vehicle type="noVar" depart="609" id="Lflow.169" route="route_Lflow.169" />
<route id="route_Lflow.170" edges="in L1 L2 out" />
<vehicle type="noVar" depart="612" id="Lflow.170" route="route_Lflow.170" />
<route id="route_Rflow.34" edges="in L1 L2 out" />
<vehicle type="noVar" depart="615" id="Rflow.34" route="route_Rflow.34" />
<route id="route_Lflow.171" edges="in L1 L2 out" />
<vehicle type="noVar" depart="616" id="Lflow.171" route="route_Lflow.171" />
<route id="route_Lflow.172" edges="in L1 L2 out" />
<vehicle type="noVar" depart="619" id="Lflow.172" route="route_Lflow.172" />
<route id="route_Lflow.173" edges="in L1 L2 out" />
<vehicle type="noVar" depart="623" id="Lflow.173" route="route_Lflow.173" />
<route id="route_Lflow.174" edges="in L1 L2 out" />
<vehicle type="noVar" depart="627" id="Lflow.174" route="route_Lflow.174" />
<route id="route_Lflow.175" edges="in L1 L2 out" />
<vehicle type="noVar" depart="630" id="Lflow.175" route="route_Lflow.175" />
<route id="route_Rflow.35" edges="in L1 L2 out" />
<vehicle type="noVar" depart="633" id="Rflow.35" route="route_Rflow.35" />
<route id="route_Lflow.176" edges="in L1 L2 out" />
<vehicle type="noVar" depart="634" id="Lflow.176" route="route_Lflow.176" />
<route id="route_Lflow.177" edges="in L1 L2 out" />
<vehicle type="noVar" depart="637" id="Lflow.177" route="route_Lflow.177" />
<route id="route_Lflow.178" edges="in L1 L2 out" />
<vehicle type="noVar" depart="641" id="Lflow.178" route="route_Lflow.178" />
<route id="route_Lflow.179" edges="in L1 L2 out" />
<vehicle type="noVar" depart="645" id="Lflow.179" route="route_Lflow.179" />
<route id="route_Lflow.180" edges="in L1 L2 out" />
<vehicle type="noVar" depart="648" id="Lflow.180" route="route_Lflow.180" />
<route id="route_Rflow.36" edges="in L1 L2 out" />
<vehicle type="noVar" depart="651" id="Rflow.36" route="route_Rflow.36" />
<route id="route_Lflow.181" edges="in L1 L2 out" />
<vehicle type="noVar" depart="652" id="Lflow.181" route="route_Lflow.181" />
<route id="route_Lflow.182" edges="in L1 L2 out" />
<vehicle type="noVar" depart="655" id="Lflow.182" route="route_Lflow.182" />
<route id="route_Lflow.183" edges="in L1 L2 out" />
<vehicle type="noVar" depart="659" id="Lflow.183" route="route_Lflow.183" />
<route id="route_Lflow.184" edges="in L1 L2 out" />
<vehicle type="noVar" depart="663" id="Lflow.184" route="route_Lflow.184" />
<route id="route_Lflow.185" edges="in L1 L2 out" />
<vehicle type="noVar" depart="666" id="Lflow.185" route="route_Lflow.185" />
<route id="route_Rflow.37" edges="in L1 L2 out" />
<vehicle type="noVar" depart="669" id="Rflow.37" route="route_Rflow.37" />
<route id="route_Lflow.186" edges="in L1 L2 out" />
<vehicle type="noVar" depart="670" id="Lflow.186" route="route_Lflow.186" />
<route id="route_Lflow.187" edges="in L1 L2 out" />
<vehicle type="noVar" depart="673" id="Lflow.187" route="route_Lflow.187" />
<route id="route_Lflow.188" edges="in L1 L2 out" />
<vehicle type="noVar" depart="677" id="Lflow.188" route="route_Lflow.188" />
<route id="route_Lflow.189" edges="in L1 L2 out" />
<vehicle type="noVar" depart="681" id="Lflow.189" route="route_Lflow.189" />
<route id="route_Lflow.190" edges="in L1 L2 out" />
<vehicle type="noVar" depart="684" id="Lflow.190" route="route_Lflow.190" />
<route id="route_Rflow.38" edges="in L1 L2 out" />
<vehicle type="noVar" depart="687" id="Rflow.38" route="route_Rflow.38" />
<route id="route_Lflow.191" edges="in L1 L2 out" />
<vehicle type="noVar" depart="688" id="Lflow.191" route="route_Lflow.191" />
<route id="route_Lflow.192" edges="in L1 L2 out" />
<vehicle type="noVar" depart="691" id="Lflow.192" route="route_Lflow.192" />
<route id="route_Lflow.193" edges="in L1 L2 out" />
<vehicle type="noVar" depart="695" id="Lflow.193" route="route_Lflow.193" />
<route id="route_Lflow.194" edges="in L1 L2 out" />
<vehicle type="noVar" depart="699" id="Lflow.194" route="route_Lflow.194" />
<route id="route_Lflow.195" edges="in L1 L2 out" />