<?xml version="1.0" encoding="UTF-8"?>
<routes xmlns:xsi="http://www.w3.org/2001/XMLSchema-instance" xsi:noNamespaceSchemaLocation="http://sumo.dlr.de/xsd/routes_file.xsd">

<vType id="noVar" speedFactor="1.0" speedDev="0.0"/>
<trip type="noVar" depart="1" id="Grant-Fourth-Forbes.146" from="Grant-Fourth-Forbes" to="Sixth-Ross-RHS" />
<trip type="noVar" depart="2" id="Ross-Fourth-Forbes.24" from="Ross-Fourth-Forbes" to="WilliamPenn-Forbes-Fourth" />
<trip type="noVar" depart="4" id="Sixth-Smithfield-WilliamPenn.194" from="Sixth-Smithfield-WilliamPenn" to="WilliamPenn-Forbes-Fourth" />
<trip type="noVar" depart="4" id="Grant-Fourth-Forbes.353" from="Grant-Fourth-Forbes" to="WilliamPenn-Forbes-Fourth" />
<trip type="noVar" depart="5" id="Ross-Fourth-Forbes.377" from="Ross-Fourth-Forbes" to="Grant-Forbes-Fourth" />
<trip type="noVar" depart="7" id="Forbes-RHS-Ross.265" from="Forbes-RHS-Ross" to="Ross-Forbes-Fourth" />
<trip type="noVar" depart="8" id="Grant-Seventh-Sixth.334" from="Grant-Seventh-Sixth" to="Grant-Forbes-Fourth" />
<trip type="noVar" depart="8" id="Sixth-RHS-Ross.180" from="Sixth-RHS-Ross" to="Grant-Sixth-Seventh" />
<trip type="noVar" depart="9" id="Fifth-RHS-Ross.26" from="Fifth-RHS-Ross" to="Grant-Forbes-Fourth" />
<trip type="noVar" depart="10" id="Ross-Fourth-Forbes.59" from="Ross-Fourth-Forbes" to="Forbes-Ross-RHS" />
<trip type="noVar" depart="11" id="WilliamPenn-Seventh-Sixth.84" from="WilliamPenn-Seventh-Sixth" to="Sixth-Ross-RHS" />
<trip type="noVar" depart="11" id="Fifth-RHS-Ross.120" from="Fifth-RHS-Ross" to="Ross-Forbes-Fourth" />
<trip type="noVar" depart="13" id="Sixth-RHS-Ross.47" from="Sixth-RHS-Ross" to="Grant-Forbes-Fourth" />
<trip type="noVar" depart="14" id="Ross-Fourth-Forbes.175" from="Ross-Fourth-Forbes" to="Forbes-WilliamPenn-Smithfield" />
<trip type="noVar" depart="15" id="Forbes-RHS-Ross.165" from="Forbes-RHS-Ross" to="WilliamPenn-Forbes-Fourth" />
<trip type="noVar" depart="19" id="Sixth-RHS-Ross.164" from="Sixth-RHS-Ross" to="Grant-Sixth-Seventh" />
<trip type="noVar" depart="21" id="Grant-Seventh-Sixth.320" from="Grant-Seventh-Sixth" to="Grant-Forbes-Fourth" />
<trip type="noVar" depart="21" id="Fifth-Smithfield-WilliamPenn.42" from="Fifth-Smithfield-WilliamPenn" to="Fifth-Ross-RHS" />
<trip type="noVar" depart="21" id="Grant-Fourth-Forbes.77" from="Grant-Fourth-Forbes" to="Sixth-WilliamPenn-Smithfield" />
<trip type="noVar" depart="21" id="Ross-Seventh-Sixth.190" from="Ross-Seventh-Sixth" to="Ross-Forbes-Fourth" />
<trip type="noVar" depart="21" id="Forbes-RHS-Ross.55" from="Forbes-RHS-Ross" to="Ross-Forbes-Fourth" />
<trip type="noVar" depart="22" id="Forbes-RHS-Ross.184" from="Forbes-RHS-Ross" to="WilliamPenn-Forbes-Fourth" />
<trip type="noVar" depart="24" id="Grant-Seventh-Sixth.391" from="Grant-Seventh-Sixth" to="Grant-Forbes-Fourth" />
<trip type="noVar" depart="24" id="Grant-Fourth-Forbes.182" from="Grant-Fourth-Forbes" to="Grant-Sixth-Seventh" />
<trip type="noVar" depart="25" id="Fifth-RHS-Ross.277" from="Fifth-RHS-Ross" to="Fifth-WilliamPenn-Smithfield" />
<trip type="noVar" depart="25" id="Ross-Fourth-Forbes.333" from="Ross-Fourth-Forbes" to="Forbes-Ross-RHS" />
<trip type="noVar" depart="26" id="Forbes-RHS-Ross.326" from="Forbes-RHS-Ross" to="Fifth-Ross-RHS" />
<trip type="noVar" depart="28" id="Forbes-RHS-Ross.194" from="Forbes-RHS-Ross" to="WilliamPenn-Forbes-Fourth" />
<trip type="noVar" depart="30" id="Forbes-RHS-Ross.323" from="Forbes-RHS-Ross" to="Ross-Forbes-Fourth" />
<trip type="noVar" depart="31" id="WilliamPenn-Seventh-Sixth.157" from="WilliamPenn-Seventh-Sixth" to="Sixth-WilliamPenn-Smithfield" />
<trip type="noVar" depart="31" id="Forbes-RHS-Ross.311" from="Forbes-RHS-Ross" to="Grant-Forbes-Fourth" />
<trip type="noVar" depart="32" id="WilliamPenn-Seventh-Sixth.13" from="WilliamPenn-Seventh-Sixth" to="Sixth-WilliamPenn-Smithfield" />
<trip type="noVar" depart="32" id="Fifth-Smithfield-WilliamPenn.4" from="Fifth-Smithfield-WilliamPenn" to="Fifth-Ross-RHS" />
<trip type="noVar" depart="33" id="Ross-Fourth-Forbes.223" from="Ross-Fourth-Forbes" to="Fifth-Ross-RHS" />
<trip type="noVar" depart="34" id="Grant-Seventh-Sixth.312" from="Grant-Seventh-Sixth" to="Grant-Forbes-Fourth" />
<trip type="noVar" depart="34" id="Grant-Fourth-Forbes.99" from="Grant-Fourth-Forbes" to="Ross-Forbes-Fourth" />
<trip type="noVar" depart="36" id="Grant-Fourth-Forbes.582" from="Grant-Fourth-Forbes" to="Grant-Sixth-Seventh" />
<trip type="noVar" depart="36" id="Ross-Seventh-Sixth.269" from="Ross-Seventh-Sixth" to="Grant-Sixth-Seventh" />
<trip type="noVar" depart="37" id="Ross-Fourth-Forbes.164" from="Ross-Fourth-Forbes" to="WilliamPenn-Forbes-Fourth" />
<trip type="noVar" depart="38" id="Grant-Fourth-Forbes.278" from="Grant-Fourth-Forbes" to="WilliamPenn-Forbes-Fourth" />
<trip type="noVar" depart="38" id="Fifth-RHS-Ross.126" from="Fifth-RHS-Ross" to="Fifth-WilliamPenn-Smithfield" />
<trip type="noVar" depart="39" id="Forbes-RHS-Ross.102" from="Forbes-RHS-Ross" to="Fifth-Ross-RHS" />
<trip type="noVar" depart="40" id="Sixth-Smithfield-WilliamPenn.66" from="Sixth-Smithfield-WilliamPenn" to="Sixth-Ross-RHS" />
<trip type="noVar" depart="41" id="Grant-Seventh-Sixth.208" from="Grant-Seventh-Sixth" to="Grant-Forbes-Fourth" />
<trip type="noVar" depart="44" id="Sixth-Smithfield-WilliamPenn.213" from="Sixth-Smithfield-WilliamPenn" to="Sixth-Ross-RHS" />
<trip type="noVar" depart="44" id="Forbes-Smithfield-WilliamPenn.33" from="Forbes-Smithfield-WilliamPenn" to="WilliamPenn-Forbes-Fourth" />
<trip type="noVar" depart="44" id="Ross-Seventh-Sixth.63" from="Ross-Seventh-Sixth" to="Ross-Forbes-Fourth" />
<trip type="noVar" depart="44" id="Ross-Seventh-Sixth.267" from="Ross-Seventh-Sixth" to="Grant-Forbes-Fourth" />
<trip type="noVar" depart="45" id="Sixth-Smithfield-WilliamPenn.37" from="Sixth-Smithfield-WilliamPenn" to="Grant-Sixth-Seventh" />
<trip type="noVar" depart="45" id="Ross-Fourth-Forbes.26" from="Ross-Fourth-Forbes" to="Forbes-WilliamPenn-Smithfield" />
<trip type="noVar" depart="46" id="Sixth-Smithfield-WilliamPenn.146" from="Sixth-Smithfield-WilliamPenn" to="Forbes-WilliamPenn-Smithfield" />
<trip type="noVar" depart="46" id="Sixth-RHS-Ross.73" from="Sixth-RHS-Ross" to="Sixth-WilliamPenn-Smithfield" />
<trip type="noVar" depart="46" id="Ross-Fourth-Forbes.282" from="Ross-Fourth-Forbes" to="Ross-Sixth-Seventh" />
<trip type="noVar" depart="47" id="Ross-Seventh-Sixth.138" from="Ross-Seventh-Sixth" to="WilliamPenn-Forbes-Fourth" />
<trip type="noVar" depart="47" id="Fifth-RHS-Ross.173" from="Fifth-RHS-Ross" to="Fifth-WilliamPenn-Smithfield" />
<trip type="noVar" depart="49" id="Grant-Seventh-Sixth.268" from="Grant-Seventh-Sixth" to="Fifth-WilliamPenn-Smithfield" />
<trip type="noVar" depart="49" id="Grant-Fourth-Forbes.525" from="Grant-Fourth-Forbes" to="Fifth-WilliamPenn-Smithfield" />
<trip type="noVar" depart="49" id="Fifth-RHS-Ross.273" from="Fifth-RHS-Ross" to="Grant-Sixth-Seventh" />
<trip type="noVar" depart="50" id="Grant-Fourth-Forbes.365" from="Grant-Fourth-Forbes" to="Forbes-WilliamPenn-Smithfield" />
<trip type="noVar" depart="50" id="Ross-Seventh-Sixth.135" from="Ross-Seventh-Sixth" to="Forbes-WilliamPenn-Smithfield" />
<trip type="noVar" depart="50" id="Ross-Fourth-Forbes.58" from="Ross-Fourth-Forbes" to="Forbes-Ross-RHS" />
<trip type="noVar" depart="51" id="Oliver-Smithfield-WilliamPenn.83" from="Oliver-Smithfield-WilliamPenn" to="WilliamPenn-Forbes-Fourth" />
<trip type="noVar" depart="51" id="Grant-Fourth-Forbes.486" from="Grant-Fourth-Forbes" to="Sixth-WilliamPenn-Smithfield" />
<trip type="noVar" depart="51" id="Grant-Fourth-Forbes.521" from="Grant-Fourth-Forbes" to="Forbes-Ross-RHS" />
<trip type="noVar" depart="53" id="Grant-Fourth-Forbes.244" from="Grant-Fourth-Forbes" to="Sixth-Ross-RHS" />
<trip type="noVar" depart="53" id="Grant-Fourth-Forbes.483" from="Grant-Fourth-Forbes" to="Grant-Sixth-Seventh" />
<trip type="noVar" depart="54" id="Grant-Seventh-Sixth.299" from="Grant-Seventh-Sixth" to="Ross-Sixth-Seventh" />
<trip type="noVar" depart="56" id="Grant-Fourth-Forbes.693" from="Grant-Fourth-Forbes" to="Grant-Sixth-Seventh" />
<trip type="noVar" depart="57" id="Grant-Seventh-Sixth.1" from="Grant-Seventh-Sixth" to="Fifth-WilliamPenn-Smithfield" />
<trip type="noVar" depart="58" id="Grant-Fourth-Forbes.43" from="Grant-Fourth-Forbes" to="Grant-Sixth-Seventh" />
<trip type="noVar" depart="58" id="Fifth-RHS-Ross.283" from="Fifth-RHS-Ross" to="Grant-Forbes-Fourth" />
<trip type="noVar" depart="60" id="Grant-Seventh-Sixth.311" from="Grant-Seventh-Sixth" to="WilliamPenn-Forbes-Fourth" />
<trip type="noVar" depart="60" id="Forbes-RHS-Ross.34" from="Forbes-RHS-Ross" to="Ross-Forbes-Fourth" />
<trip type="noVar" depart="61" id="Grant-Seventh-Sixth.149" from="Grant-Seventh-Sixth" to="Fifth-WilliamPenn-Smithfield" />
<trip type="noVar" depart="61" id="Ross-Fourth-Forbes.148" from="Ross-Fourth-Forbes" to="WilliamPenn-Forbes-Fourth" />
<trip type="noVar" depart="62" id="Oliver-Smithfield-WilliamPenn.128" from="Oliver-Smithfield-WilliamPenn" to="Sixth-WilliamPenn-Smithfield" />
<trip type="noVar" depart="62" id="Grant-Fourth-Forbes.14" from="Grant-Fourth-Forbes" to="Fifth-Ross-RHS" />
<trip type="noVar" depart="62" id="Forbes-Smithfield-WilliamPenn.14" from="Forbes-Smithfield-WilliamPenn" to="WilliamPenn-Forbes-Fourth" />
<trip type="noVar" depart="62" id="Fifth-RHS-Ross.7" from="Fifth-RHS-Ross" to="Fifth-WilliamPenn-Smithfield" />
<trip type="noVar" depart="62" id="Ross-Fourth-Forbes.192" from="Ross-Fourth-Forbes" to="Sixth-WilliamPenn-Smithfield" />
<trip type="noVar" depart="62" id="Ross-Fourth-Forbes.362" from="Ross-Fourth-Forbes" to="Forbes-Ross-RHS" />
<trip type="noVar" depart="63" id="Grant-Seventh-Sixth.280" from="Grant-Seventh-Sixth" to="Fifth-Ross-RHS" />
<trip type="noVar" depart="63" id="Grant-Fourth-Forbes.91" from="Grant-Fourth-Forbes" to="Grant-Sixth-Seventh" />
<trip type="noVar" depart="64" id="Forbes-RHS-Ross.4" from="Forbes-RHS-Ross" to="Grant-Forbes-Fourth" />
<trip type="noVar" depart="67" id="Oliver-Smithfield-WilliamPenn.121" from="Oliver-Smithfield-WilliamPenn" to="WilliamPenn-Forbes-Fourth" />
<trip type="noVar" depart="67" id="Grant-Fourth-Forbes.85" from="Grant-Fourth-Forbes" to="Sixth-WilliamPenn-Smithfield" />
<trip type="noVar" depart="69" id="WilliamPenn-Seventh-Sixth.39" from="WilliamPenn-Seventh-Sixth" to="Grant-Forbes-Fourth" />
<trip type="noVar" depart="70" id="Sixth-Smithfield-WilliamPenn.232" from="Sixth-Smithfield-WilliamPenn" to="Grant-Sixth-Seventh" />
<trip type="noVar" depart="72" id="Grant-Fourth-Forbes.271" from="Grant-Fourth-Forbes" to="Sixth-Ross-RHS" />
<trip type="noVar" depart="72" id="Fifth-RHS-Ross.87" from="Fifth-RHS-Ross" to="Forbes-Ross-RHS" />
<trip type="noVar" depart="72" id="Ross-Fourth-Forbes.170" from="Ross-Fourth-Forbes" to="Forbes-Ross-RHS" />
<trip type="noVar" depart="73" id="WilliamPenn-Seventh-Sixth.63" from="WilliamPenn-Seventh-Sixth" to="Grant-Sixth-Seventh" />
<trip type="noVar" depart="74" id="Grant-Seventh-Sixth.215" from="Grant-Seventh-Sixth" to="Grant-Forbes-Fourth" />
<trip type="noVar" depart="74" id="Grant-Fourth-Forbes.213" from="Grant-Fourth-Forbes" to="Sixth-Ross-RHS" />
<trip type="noVar" depart="74" id="Fifth-RHS-Ross.114" from="Fifth-RHS-Ross" to="Fifth-WilliamPenn-Smithfield" />
<trip type="noVar" depart="75" id="WilliamPenn-Seventh-Sixth.135" from="WilliamPenn-Seventh-Sixth" to="Grant-Sixth-Seventh" />
<trip type="noVar" depart="76" id="Grant-Seventh-Sixth.148" from="Grant-Seventh-Sixth" to="Fifth-WilliamPenn-Smithfield" />
<trip type="noVar" depart="76" id="Oliver-Smithfield-WilliamPenn.123" from="Oliver-Smithfield-WilliamPenn" to="Ross-Sixth-Seventh" />
<trip type="noVar" depart="77" id="Ross-Fourth-Forbes.21" from="Ross-Fourth-Forbes" to="Forbes-Ross-RHS" />
<trip type="noVar" depart="77" id="Ross-Fourth-Forbes.45" from="Ross-Fourth-Forbes" to="Forbes-WilliamPenn-Smithfield" />
<trip type="noVar" depart="78" id="Grant-Fourth-Forbes.403" from="Grant-Fourth-Forbes" to="Forbes-WilliamPenn-Smithfield" />
<trip type="noVar" depart="81" id="Ross-Seventh-Sixth.69" from="Ross-Seventh-Sixth" to="Sixth-Ross-RHS" />
<trip type="noVar" depart="83" id="WilliamPenn-Seventh-Sixth.217" from="WilliamPenn-Seventh-Sixth" to="Forbes-WilliamPenn-Smithfield" />
<trip type="noVar" depart="84" id="Fifth-RHS-Ross.223" from="Fifth-RHS-Ross" to="WilliamPenn-Forbes-Fourth" />
<trip type="noVar" depart="84" id="Fifth-RHS-Ross.227" from="Fifth-RHS-Ross" to="Fifth-WilliamPenn-Smithfield" />
<trip type="noVar" depart="84" id="Forbes-RHS-Ross.333" from="Forbes-RHS-Ross" to="Sixth-Ross-RHS" />
<trip type="noVar" depart="87" id="Grant-Seventh-Sixth.7" from="Grant-Seventh-Sixth" to="WilliamPenn-Forbes-Fourth" />
<trip type="noVar" depart="88" id="Forbes-RHS-Ross.299" from="Forbes-RHS-Ross" to="Grant-Forbes-Fourth" />
<trip type="noVar" depart="90" id="WilliamPenn-Seventh-Sixth.174" from="WilliamPenn-Seventh-Sixth" to="Sixth-WilliamPenn-Smithfield" />
<trip type="noVar" depart="90" id="Ross-Fourth-Forbes.350" from="Ross-Fourth-Forbes" to="Ross-Sixth-Seventh" />
<trip type="noVar" depart="93" id="Grant-Fourth-Forbes.194" from="Grant-Fourth-Forbes" to="Sixth-Ross-RHS" />
<trip type="noVar" depart="93" id="Ross-Seventh-Sixth.113" from="Ross-Seventh-Sixth" to="Sixth-Ross-RHS" />
<trip type="noVar" depart="94" id="Grant-Fourth-Forbes.375" from="Grant-Fourth-Forbes" to="WilliamPenn-Forbes-Fourth" />
<trip type="noVar" depart="95" id="Forbes-RHS-Ross.213" from="Forbes-RHS-Ross" to="Grant-Forbes-Fourth" />
<trip type="noVar" depart="97" id="Ross-Fourth-Forbes.130" from="Ross-Fourth-Forbes" to="Forbes-Ross-RHS" />
<trip type="noVar" depart="97" id="Ross-Fourth-Forbes.364" from="Ross-Fourth-Forbes" to="WilliamPenn-Forbes-Fourth" />
<trip type="noVar" depart="98" id="Grant-Seventh-Sixth.37" from="Grant-Seventh-Sixth" to="Sixth-Ross-RHS" />
<trip type="noVar" depart="98" id="Grant-Fourth-Forbes.313" from="Grant-Fourth-Forbes" to="Grant-Sixth-Seventh" />
<trip type="noVar" depart="99" id="Grant-Seventh-Sixth.41" from="Grant-Seventh-Sixth" to="Forbes-Ross-RHS" />
<trip type="noVar" depart="99" id="Sixth-Smithfield-WilliamPenn.19" from="Sixth-Smithfield-WilliamPenn" to="Sixth-Ross-RHS" />
<trip type="noVar" depart="100" id="Sixth-RHS-Ross.135" from="Sixth-RHS-Ross" to="Forbes-WilliamPenn-Smithfield" />
<trip type="noVar" depart="101" id="Ross-Fourth-Forbes.385" from="Ross-Fourth-Forbes" to="Forbes-Ross-RHS" />
<trip type="noVar" depart="102" id="Grant-Fourth-Forbes.433" from="Grant-Fourth-Forbes" to="WilliamPenn-Forbes-Fourth" />
<trip type="noVar" depart="103" id="Grant-Seventh-Sixth.313" from="Grant-Seventh-Sixth" to="Grant-Forbes-Fourth" />
<trip type="noVar" depart="103" id="WilliamPenn-Seventh-Sixth.60" from="WilliamPenn-Seventh-Sixth" to="Grant-Sixth-Seventh" />
<trip type="noVar" depart="103" id="Sixth-Smithfield-WilliamPenn.124" from="Sixth-Smithfield-WilliamPenn" to="Ross-Sixth-Seventh" />
<trip type="noVar" depart="104" id="WilliamPenn-Seventh-Sixth.4" from="WilliamPenn-Seventh-Sixth" to="Fifth-WilliamPenn-Smithfield" />
<trip type="noVar" depart="104" id="Sixth-Smithfield-WilliamPenn.197" from="Sixth-Smithfield-WilliamPenn" to="Ross-Sixth-Seventh" />
<trip type="noVar" depart="104" id="Ross-Fourth-Forbes.40" from="Ross-Fourth-Forbes" to="Fifth-Ross-RHS" />
<trip type="noVar" depart="105" id="WilliamPenn-Seventh-Sixth.143" from="WilliamPenn-Seventh-Sixth" to="Oliver-WilliamPenn-Smithfield" />
<trip type="noVar" depart="105" id="Forbes-RHS-Ross.192" from="Forbes-RHS-Ross" to="WilliamPenn-Forbes-Fourth" />
<trip type="noVar" depart="106" id="Forbes-RHS-Ross.278" from="Forbes-RHS-Ross" to="Forbes-WilliamPenn-Smithfield" />
<trip type="noVar" depart="107" id="WilliamPenn-Seventh-Sixth.188" from="WilliamPenn-Seventh-Sixth" to="Fifth-WilliamPenn-Smithfield" />
<trip type="noVar" depart="107" id="Ross-Seventh-Sixth.11" from="Ross-Seventh-Sixth" to="Ross-Forbes-Fourth" />
<trip type="noVar" depart="108" id="Grant-Fourth-Forbes.168" from="Grant-Fourth-Forbes" to="Fifth-WilliamPenn-Smithfield" />
<trip type="noVar" depart="108" id="Grant-Fourth-Forbes.413" from="Grant-Fourth-Forbes" to="Ross-Forbes-Fourth" />
<trip type="noVar" depart="110" id="Grant-Seventh-Sixth.182" from="Grant-Seventh-Sixth" to="Grant-Forbes-Fourth" />
<trip type="noVar" depart="110" id="Forbes-RHS-Ross.189" from="Forbes-RHS-Ross" to="Ross-Sixth-Seventh" />
<trip type="noVar" depart="111" id="Sixth-Smithfield-WilliamPenn.87" from="Sixth-Smithfield-WilliamPenn" to="Sixth-Ross-RHS" />
<trip type="noVar" depart="111" id="Sixth-Smithfield-WilliamPenn.145" from="Sixth-Smithfield-WilliamPenn" to="Oliver-WilliamPenn-Smithfield" />
<trip type="noVar" depart="111" id="Sixth-Smithfield-WilliamPenn.192" from="Sixth-Smithfield-WilliamPenn" to="Ross-Forbes-Fourth" />
<trip type="noVar" depart="111" id="Ross-Seventh-Sixth.67" from="Ross-Seventh-Sixth" to="Sixth-WilliamPenn-Smithfield" />
<trip type="noVar" depart="112" id="Grant-Seventh-Sixth.294" from="Grant-Seventh-Sixth" to="Grant-Forbes-Fourth" />
<trip type="noVar" depart="112" id="Sixth-Smithfield-WilliamPenn.132" from="Sixth-Smithfield-WilliamPenn" to="Grant-Sixth-Seventh" />
<trip type="noVar" depart="112" id="Grant-Fourth-Forbes.540" from="Grant-Fourth-Forbes" to="Sixth-Ross-RHS" />
<trip type="noVar" depart="115" id="Grant-Fourth-Forbes.54" from="Grant-Fourth-Forbes" to="WilliamPenn-Forbes-Fourth" />
<trip type="noVar" depart="116" id="Grant-Fourth-Forbes.589" from="Grant-Fourth-Forbes" to="Forbes-WilliamPenn-Smithfield" />
<trip type="noVar" depart="116" id="Sixth-RHS-Ross.102" from="Sixth-RHS-Ross" to="Sixth-WilliamPenn-Smithfield" />
<trip type="noVar" depart="117" id="Ross-Seventh-Sixth.109" from="Ross-Seventh-Sixth" to="Ross-Forbes-Fourth" />
<trip type="noVar" depart="117" id="Ross-Seventh-Sixth.283" from="Ross-Seventh-Sixth" to="Sixth-Ross-RHS" />
<trip type="noVar" depart="119" id="Sixth-Smithfield-WilliamPenn.49" from="Sixth-Smithfield-WilliamPenn" to="Ross-Sixth-Seventh" />
<trip type="noVar" depart="121" id="Forbes-RHS-Ross.291" from="Forbes-RHS-Ross" to="Ross-Forbes-Fourth" />
<trip type="noVar" depart="124" id="Fifth-RHS-Ross.75" from="Fifth-RHS-Ross" to="Grant-Forbes-Fourth" />
<trip type="noVar" depart="129" id="Grant-Fourth-Forbes.113" from="Grant-Fourth-Forbes" to="WilliamPenn-Forbes-Fourth" />
<trip type="noVar" depart="129" id="Ross-Fourth-Forbes.19" from="Ross-Fourth-Forbes" to="Grant-Sixth-Seventh" />
<trip type="noVar" depart="129" id="Ross-Fourth-Forbes.146" from="Ross-Fourth-Forbes" to="WilliamPenn-Forbes-Fourth" />
<trip type="noVar" depart="130" id="WilliamPenn-Seventh-Sixth.81" from="WilliamPenn-Seventh-Sixth" to="WilliamPenn-Forbes-Fourth" />
<trip type="noVar" depart="130" id="Ross-Seventh-Sixth.268" from="Ross-Seventh-Sixth" to="Forbes-Ross-RHS" />
<trip type="noVar" depart="131" id="Sixth-Smithfield-WilliamPenn.246" from="Sixth-Smithfield-WilliamPenn" to="Sixth-Ross-RHS" />
<trip type="noVar" depart="131" id="Fifth-Smithfield-WilliamPenn.49" from="Fifth-Smithfield-WilliamPenn" to="Fifth-Ross-RHS" />
<trip type="noVar" depart="132" id="Forbes-RHS-Ross.281" from="Forbes-RHS-Ross" to="Grant-Forbes-Fourth" />
<trip type="noVar" depart="133" id="Ross-Fourth-Forbes.50" from="Ross-Fourth-Forbes" to="Ross-Sixth-Seventh" />
<trip type="noVar" depart="135" id="Grant-Fourth-Forbes.453" from="Grant-Fourth-Forbes" to="Forbes-Ross-RHS" />
<trip type="noVar" depart="135" id="Ross-Fourth-Forbes.7" from="Ross-Fourth-Forbes" to="Sixth-Ross-RHS" />
<trip type="noVar" depart="136" id="WilliamPenn-Seventh-Sixth.220" from="WilliamPenn-Seventh-Sixth" to="Oliver-WilliamPenn-Smithfield" />
<trip type="noVar" depart="136" id="Fifth-RHS-Ross.115" from="Fifth-RHS-Ross" to="Grant-Sixth-Seventh" />
<trip type="noVar" depart="137" id="Ross-Fourth-Forbes.202" from="Ross-Fourth-Forbes" to="Forbes-WilliamPenn-Smithfield" />
<trip type="noVar" depart="138" id="Grant-Fourth-Forbes.259" from="Grant-Fourth-Forbes" to="Grant-Sixth-Seventh" />
<trip type="noVar" depart="139" id="Sixth-Smithfield-WilliamPenn.142" from="Sixth-Smithfield-WilliamPenn" to="Grant-Sixth-Seventh" />
<trip type="noVar" depart="139" id="Ross-Seventh-Sixth.34" from="Ross-Seventh-Sixth" to="Sixth-WilliamPenn-Smithfield" />
<trip type="noVar" depart="141" id="Sixth-Smithfield-WilliamPenn.249" from="Sixth-Smithfield-WilliamPenn" to="Ross-Sixth-Seventh" />
<trip type="noVar" depart="141" id="Fifth-Smithfield-WilliamPenn.125" from="Fifth-Smithfield-WilliamPenn" to="Fifth-Ross-RHS" />
<trip type="noVar" depart="142" id="Forbes-RHS-Ross.6" from="Forbes-RHS-Ross" to="Ross-Forbes-Fourth" />
<trip type="noVar" depart="143" id="Grant-Fourth-Forbes.49" from="Grant-Fourth-Forbes" to="Sixth-WilliamPenn-Smithfield" />
<trip type="noVar" depart="144" id="Sixth-Smithfield-WilliamPenn.272" from="Sixth-Smithfield-WilliamPenn" to="Grant-Sixth-Seventh" />
<trip type="noVar" depart="144" id="Ross-Seventh-Sixth.115" from="Ross-Seventh-Sixth" to="Ross-Forbes-Fourth" />
<trip type="noVar" depart="144" id="Sixth-RHS-Ross.126" from="Sixth-RHS-Ross" to="Sixth-WilliamPenn-Smithfield" />
<trip type="noVar" depart="145" id="Grant-Seventh-Sixth.217" from="Grant-Seventh-Sixth" to="Sixth-WilliamPenn-Smithfield" />
<trip type="noVar" depart="145" id="Sixth-RHS-Ross.201" from="Sixth-RHS-Ross" to="Sixth-WilliamPenn-Smithfield" />
<trip type="noVar" depart="146" id="Sixth-Smithfield-WilliamPenn.51" from="Sixth-Smithfield-WilliamPenn" to="Grant-Sixth-Seventh" />
<trip type="noVar" depart="146" id="Grant-Fourth-Forbes.243" from="Grant-Fourth-Forbes" to="Ross-Forbes-Fourth" />
<trip type="noVar" depart="148" id="Grant-Fourth-Forbes.583" from="Grant-Fourth-Forbes" to="Forbes-WilliamPenn-Smithfield" />
<trip type="noVar" depart="148" id="Forbes-RHS-Ross.243" from="Forbes-RHS-Ross" to="Grant-Forbes-Fourth" />
<trip type="noVar" depart="150" id="Ross-Fourth-Forbes.326" from="Ross-Fourth-Forbes" to="Forbes-Ross-RHS" />
<trip type="noVar" depart="151" id="Oliver-Smithfield-WilliamPenn.26" from="Oliver-Smithfield-WilliamPenn" to="Forbes-WilliamPenn-Smithfield" />
<trip type="noVar" depart="152" id="Fifth-RHS-Ross.8" from="Fifth-RHS-Ross" to="Ross-Sixth-Seventh" />
<trip type="noVar" depart="155" id="Grant-Fourth-Forbes.269" from="Grant-Fourth-Forbes" to="WilliamPenn-Forbes-Fourth" />
<trip type="noVar" depart="157" id="Sixth-RHS-Ross.3" from="Sixth-RHS-Ross" to="Sixth-WilliamPenn-Smithfield" />
<trip type="noVar" depart="157" id="Ross-Fourth-Forbes.246" from="Ross-Fourth-Forbes" to="Forbes-Ross-RHS" />
<trip type="noVar" depart="158" id="Ross-Fourth-Forbes.139" from="Ross-Fourth-Forbes" to="Forbes-Ross-RHS" />
<trip type="noVar" depart="160" id="Oliver-Smithfield-WilliamPenn.135" from="Oliver-Smithfield-WilliamPenn" to="WilliamPenn-Forbes-Fourth" />
<trip type="noVar" depart="161" id="Sixth-RHS-Ross.186" from="Sixth-RHS-Ross" to="Grant-Sixth-Seventh" />
<trip type="noVar" depart="163" id="Ross-Seventh-Sixth.74" from="Ross-Seventh-Sixth" to="Sixth-Ross-RHS" />
<trip type="noVar" depart="164" id="Grant-Seventh-Sixth.136" from="Grant-Seventh-Sixth" to="Grant-Forbes-Fourth" />
<trip type="noVar" depart="164" id="Grant-Fourth-Forbes.407" from="Grant-Fourth-Forbes" to="Sixth-Ross-RHS" />
<trip type="noVar" depart="164" id="Ross-Seventh-Sixth.93" from="Ross-Seventh-Sixth" to="Grant-Sixth-Seventh" />
<trip type="noVar" depart="164" id="Forbes-RHS-Ross.100" from="Forbes-RHS-Ross" to="Ross-Forbes-Fourth" />
<trip type="noVar" depart="165" id="Fifth-Smithfield-WilliamPenn.61" from="Fifth-Smithfield-WilliamPenn" to="Ross-Forbes-Fourth" />
<trip type="noVar" depart="165" id="Ross-Seventh-Sixth.178" from="Ross-Seventh-Sixth" to="Sixth-WilliamPenn-Smithfield" />
<trip type="noVar" depart="170" id="Grant-Fourth-Forbes.170" from="Grant-Fourth-Forbes" to="Grant-Sixth-Seventh" />
<trip type="noVar" depart="171" id="Sixth-Smithfield-WilliamPenn.158" from="Sixth-Smithfield-WilliamPenn" to="Grant-Sixth-Seventh" />
<trip type="noVar" depart="172" id="Ross-Seventh-Sixth.179" from="Ross-Seventh-Sixth" to="Fifth-Ross-RHS" />
<trip type="noVar" depart="173" id="Sixth-Smithfield-WilliamPenn.94" from="Sixth-Smithfield-WilliamPenn" to="Grant-Forbes-Fourth" />
<trip type="noVar" depart="173" id="Fifth-RHS-Ross.131" from="Fifth-RHS-Ross" to="Grant-Forbes-Fourth" />
<trip type="noVar" depart="173" id="Forbes-RHS-Ross.263" from="Forbes-RHS-Ross" to="Forbes-WilliamPenn-Smithfield" />
<trip type="noVar" depart="177" id="Grant-Seventh-Sixth.111" from="Grant-Seventh-Sixth" to="Fifth-Ross-RHS" />
<trip type="noVar" depart="179" id="Sixth-RHS-Ross.194" from="Sixth-RHS-Ross" to="Forbes-Ross-RHS" />
<trip type="noVar" depart="179" id="Forbes-RHS-Ross.320" from="Forbes-RHS-Ross" to="WilliamPenn-Forbes-Fourth" />
<trip type="noVar" depart="181" id="Ross-Seventh-Sixth.43" from="Ross-Seventh-Sixth" to="Sixth-Ross-RHS" />
<trip type="noVar" depart="182" id="Sixth-Smithfield-WilliamPenn.104" from="Sixth-Smithfield-WilliamPenn" to="Sixth-Ross-RHS" />
<trip type="noVar" depart="182" id="Ross-Fourth-Forbes.330" from="Ross-Fourth-Forbes" to="Grant-Forbes-Fourth" />
<trip type="noVar" depart="183" id="Oliver-Smithfield-WilliamPenn.39" from="Oliver-Smithfield-WilliamPenn" to="Forbes-WilliamPenn-Smithfield" />
<trip type="noVar" depart="184" id="Grant-Seventh-Sixth.186" from="Grant-Seventh-Sixth" to="Grant-Forbes-Fourth" />
<trip type="noVar" depart="184" id="WilliamPenn-Seventh-Sixth.161" from="WilliamPenn-Seventh-Sixth" to="WilliamPenn-Forbes-Fourth" />
<trip type="noVar" depart="184" id="Grant-Fourth-Forbes.34" from="Grant-Fourth-Forbes" to="Fifth-WilliamPenn-Smithfield" />
<trip type="noVar" depart="186" id="Grant-Fourth-Forbes.264" from="Grant-Fourth-Forbes" to="Grant-Sixth-Seventh" />
<trip type="noVar" depart="187" id="Grant-Seventh-Sixth.193" from="Grant-Seventh-Sixth" to="Grant-Forbes-Fourth" />
<trip type="noVar" depart="187" id="Grant-Fourth-Forbes.509" from="Grant-Fourth-Forbes" to="Grant-Sixth-Seventh" />
<trip type="noVar" depart="187" id="Forbes-RHS-Ross.156" from="Forbes-RHS-Ross" to="Grant-Forbes-Fourth" />
<trip type="noVar" depart="188" id="Fifth-RHS-Ross.236" from="Fifth-RHS-Ross" to="Ross-Forbes-Fourth" />
<trip type="noVar" depart="190" id="Grant-Seventh-Sixth.216" from="Grant-Seventh-Sixth" to="Fifth-WilliamPenn-Smithfield" />
<trip type="noVar" depart="190" id="Fifth-RHS-Ross.92" from="Fifth-RHS-Ross" to="Fifth-WilliamPenn-Smithfield" />
<trip type="noVar" depart="191" id="Grant-Fourth-Forbes.541" from="Grant-Fourth-Forbes" to="Forbes-WilliamPenn-Smithfield" />
<trip type="noVar" depart="191" id="Forbes-RHS-Ross.57" from="Forbes-RHS-Ross" to="WilliamPenn-Forbes-Fourth" />
<trip type="noVar" depart="192" id="Grant-Fourth-Forbes.199" from="Grant-Fourth-Forbes" to="Ross-Sixth-Seventh" />
<trip type="noVar" depart="192" id="Ross-Seventh-Sixth.192" from="Ross-Seventh-Sixth" to="Sixth-Ross-RHS" />
<trip type="noVar" depart="192" id="Sixth-RHS-Ross.298" from="Sixth-RHS-Ross" to="Sixth-WilliamPenn-Smithfield" />
<trip type="noVar" depart="193" id="WilliamPenn-Seventh-Sixth.56" from="WilliamPenn-Seventh-Sixth" to="Sixth-WilliamPenn-Smithfield" />
<trip type="noVar" depart="194" id="WilliamPenn-Seventh-Sixth.75" from="WilliamPenn-Seventh-Sixth" to="Sixth-WilliamPenn-Smithfield" />
<trip type="noVar" depart="194" id="Forbes-RHS-Ross.336" from="Forbes-RHS-Ross" to="Grant-Forbes-Fourth" />
<trip type="noVar" depart="195" id="Sixth-Smithfield-WilliamPenn.17" from="Sixth-Smithfield-WilliamPenn" to="WilliamPenn-Forbes-Fourth" />
<trip type="noVar" depart="197" id="Fifth-Smithfield-WilliamPenn.85" from="Fifth-Smithfield-WilliamPenn" to="Fifth-Ross-RHS" />
<trip type="noVar" depart="198" id="Oliver-Smithfield-WilliamPenn.45" from="Oliver-Smithfield-WilliamPenn" to="Grant-Sixth-Seventh" />
<trip type="noVar" depart="199" id="Grant-Fourth-Forbes.17" from="Grant-Fourth-Forbes" to="Forbes-Ross-RHS" />
<trip type="noVar" depart="199" id="Fifth-RHS-Ross.312" from="Fifth-RHS-Ross" to="Ross-Forbes-Fourth" />
<trip type="noVar" depart="199" id="Ross-Fourth-Forbes.378" from="Ross-Fourth-Forbes" to="Forbes-Ross-RHS" />
<trip type="noVar" depart="200" id="Grant-Fourth-Forbes.381" from="Grant-Fourth-Forbes" to="WilliamPenn-Forbes-Fourth" />
<trip type="noVar" depart="203" id="Sixth-Smithfield-WilliamPenn.253" from="Sixth-Smithfield-WilliamPenn" to="Forbes-WilliamPenn-Smithfield" />
<trip type="noVar" depart="203" id="Fifth-RHS-Ross.275" from="Fifth-RHS-Ross" to="Grant-Sixth-Seventh" />
<trip type="noVar" depart="204" id="Ross-Fourth-Forbes.106" from="Ross-Fourth-Forbes" to="Fifth-Ross-RHS" />
<trip type="noVar" depart="205" id="Grant-Fourth-Forbes.697" from="Grant-Fourth-Forbes" to="Grant-Sixth-Seventh" />
<trip type="noVar" depart="208" id="Grant-Seventh-Sixth.32" from="Grant-Seventh-Sixth" to="Grant-Forbes-Fourth" />
<trip type="noVar" depart="208" id="Ross-Seventh-Sixth.248" from="Ross-Seventh-Sixth" to="Ross-Forbes-Fourth" />
<trip type="noVar" depart="209" id="Sixth-Smithfield-WilliamPenn.189" from="Sixth-Smithfield-WilliamPenn" to="Fifth-WilliamPenn-Smithfield" />
<trip type="noVar" depart="209" id="Sixth-RHS-Ross.258" from="Sixth-RHS-Ross" to="Forbes-WilliamPenn-Smithfield" />
<trip type="noVar" depart="210" id="Grant-Fourth-Forbes.90" from="Grant-Fourth-Forbes" to="Grant-Sixth-Seventh" />
<trip type="noVar" depart="210" id="Ross-Seventh-Sixth.347" from="Ross-Seventh-Sixth" to="Ross-Forbes-Fourth" />
<trip type="noVar" depart="210" id="Forbes-RHS-Ross.260" from="Forbes-RHS-Ross" to="Grant-Sixth-Seventh" />
<trip type="noVar" depart="215" id="Forbes-Smithfield-WilliamPenn.30" from="Forbes-Smithfield-WilliamPenn" to="WilliamPenn-Forbes-Fourth" />
<trip type="noVar" depart="215" id="Fifth-RHS-Ross.298" from="Fifth-RHS-Ross" to="Ross-Sixth-Seventh" />
<trip type="noVar" depart="216" id="Ross-Seventh-Sixth.202" from="Ross-Seventh-Sixth" to="Sixth-WilliamPenn-Smithfield" />