<?xml version="1.0" encoding="UTF-8"?>
<routes xmlns:xsi="http://www.w3.org/2001/XMLSchema-instance" xsi:noNamespaceSchemaLocation="http://sumo.dlr.de/xsd/routes_file.xsd">

<vType id="noVar" speedFactor="1.0" speedDev="0.0"/>
<route id="route_Sflow11.0" edges=" in1 E23 E11 -E21 E22 out1" />
<vehicle depart="0" id="Sflow11.0" route="route_Sflow11.0" />
<route id="route_Sflow21.0" edges=" in2 -E24 out1" />
<vehicle depart="0" id="Sflow21.0" route="route_Sflow21.0" />
<route id="route_Sflow31.0" edges=" in3 -E7 -E10 -E23 out1" />
<vehicle depart="0" id="Sflow31.0" route="route_Sflow31.0" />
<route id="route_Sflow41.0" edges=" in4 -E10 -E23 out1" />
<vehicle depart="0" id="Sflow41.0" route="route_Sflow41.0" />
<route id="route_Sflow51.0" edges=" in5 E13 -E19 E20 E22 out1" />
<vehicle depart="0" id="Sflow51.0" route="route_Sflow51.0" />
<route id="route_Sflow61.0" edges=" in6 E4 E5 E6 -E10 -E23 out1" />
<vehicle depart="0" id="Sflow61.0" route="route_Sflow61.0" />
<route id="route_Sflow71.0" edges=" in7 E18 E20 E22 out1" />
<vehicle depart="0" id="Sflow71.0" route="route_Sflow71.0" />
<route id="route_Sflow81.0" edges=" in8 E20 E22 out1" />
<vehicle depart="0" id="Sflow81.0" route="route_Sflow81.0" />
<route id="route_Sflow12.0" edges=" in1 E24 out2" />
<vehicle depart="4" id="Sflow12.0" route="route_Sflow12.0" />
<route id="route_Sflow22.0" edges=" in2 E31 E9 -E23 E24 out2" />
<vehicle depart="4" id="Sflow22.0" route="route_Sflow22.0" />
<route id="route_Sflow32.0" edges=" in3 E8 -E31 out2" />
<vehicle depart="4" id="Sflow32.0" route="route_Sflow32.0" />
<route id="route_Sflow42.0" edges=" in4 -E10 -E23 E24 out2" />
<vehicle depart="4" id="Sflow42.0" route="route_Sflow42.0" />
<route id="route_Sflow52.0" edges=" in5 E13 -E19 E20 E22 E24 out2" />
<vehicle depart="4" id="Sflow52.0" route="route_Sflow52.0" />
<route id="route_Sflow62.0" edges=" in6 E4 E5 E6 E7 E8 -E31 out2" />
<vehicle depart="4" id="Sflow62.0" route="route_Sflow62.0" />
<route id="route_Sflow72.0" edges=" in7 E18 E20 E22 E24 out2" />
<vehicle depart="4" id="Sflow72.0" route="route_Sflow72.0" />
<route id="route_Sflow82.0" edges=" in8 E20 E22 E24 out2" />
<vehicle depart="4" id="Sflow82.0" route="route_Sflow82.0" />
<route id="route_Sflow13.0" edges=" in1 E23 E10 E7 out3" />
<vehicle depart="8" id="Sflow13.0" route="route_Sflow13.0" />
<route id="route_Sflow23.0" edges=" in2 E31 -E8 out3" />
<vehicle depart="8" id="Sflow23.0" route="route_Sflow23.0" />
<route id="route_Sflow33.0" edges=" in3 -E7 -E10 -E9 -E8 out3" />
<vehicle depart="8" id="Sflow33.0" route="route_Sflow33.0" />
<route id="route_Sflow43.0" edges=" in4 E7 out3" />
<vehicle depart="8" id="Sflow43.0" route="route_Sflow43.0" />
<route id="route_Sflow53.0" edges=" in5 E5 E6 E7 out3" />
<vehicle depart="8" id="Sflow53.0" route="route_Sflow53.0" />
<route id="route_Sflow63.0" edges=" in6 E4 E5 E6 E7 out3" />
<vehicle depart="8" id="Sflow63.0" route="route_Sflow63.0" />
<route id="route_Sflow73.0" edges=" in7 -E17 E16 E4 E5 E6 E7 out3" />
<vehicle depart="8" id="Sflow73.0" route="route_Sflow73.0" />
<route id="route_Sflow83.0" edges=" in8 E19 -E13 E5 E6 E7 out3" />
<vehicle depart="8" id="Sflow83.0" route="route_Sflow83.0" />
<route id="route_Sflow14.0" edges=" in1 E23 E10 out4" />
<vehicle depart="12" id="Sflow14.0" route="route_Sflow14.0" />
<route id="route_Sflow24.0" edges=" in2 -E24 E23 E10 out4" />
<vehicle depart="12" id="Sflow24.0" route="route_Sflow24.0" />
<route id="route_Sflow34.0" edges=" in3 -E7 out4" />
<vehicle depart="12" id="Sflow34.0" route="route_Sflow34.0" />
<route id="route_Sflow44.0" edges=" in4 -E6 -E12 -E11 E10 out4" />
<vehicle depart="12" id="Sflow44.0" route="route_Sflow44.0" />
<route id="route_Sflow54.0" edges=" in5 E5 E6 out4" />
<vehicle depart="12" id="Sflow54.0" route="route_Sflow54.0" />
<route id="route_Sflow64.0" edges=" in6 E4 E5 E6 out4" />
<vehicle depart="12" id="Sflow64.0" route="route_Sflow64.0" />
<route id="route_Sflow74.0" edges=" in7 E18 E20 E22 E23 E10 out4" />
<vehicle depart="12" id="Sflow74.0" route="route_Sflow74.0" />
<route id="route_Sflow84.0" edges=" in8 E19 -E13 E5 E6 out4" />
<vehicle depart="12" id="Sflow84.0" route="route_Sflow84.0" />
<route id="route_Sflow15.0" edges=" in1 -E22 -E20 E19 -E13 out5" />
<vehicle depart="16" id="Sflow15.0" route="route_Sflow15.0" />
<route id="route_Sflow25.0" edges=" in2 -E24 -E22 -E20 E19 -E13 out5" />
<vehicle depart="16" id="Sflow25.0" route="route_Sflow25.0" />
<route id="route_Sflow35.0" edges=" in3 -E7 -E6 -E5 out5" />
<vehicle depart="16" id="Sflow35.0" route="route_Sflow35.0" />
<route id="route_Sflow45.0" edges=" in4 -E6 -E5 out5" />
<vehicle depart="16" id="Sflow45.0" route="route_Sflow45.0" />
<route id="route_Sflow55.0" edges=" in5 -E4 -E16 -E15 -E13 out5" />
<vehicle depart="16" id="Sflow55.0" route="route_Sflow55.0" />
<route id="route_Sflow65.0" edges=" in6 E4 out5" />
<vehicle depart="16" id="Sflow65.0" route="route_Sflow65.0" />
<route id="route_Sflow75.0" edges=" in7 E18 E19 -E13 out5" />
<vehicle depart="16" id="Sflow75.0" route="route_Sflow75.0" />
<route id="route_Sflow85.0" edges=" in8 E19 -E13 out5" />
<vehicle depart="16" id="Sflow85.0" route="route_Sflow85.0" />
<route id="route_Sflow16.0" edges=" in1 E23 E10 -E6 -E5 -E4 out6" />
<vehicle depart="20" id="Sflow16.0" route="route_Sflow16.0" />
<route id="route_Sflow26.0" edges=" in2 -E24 -E22 -E20 -E18 -E17 E16 out6" />
<vehicle depart="20" id="Sflow26.0" route="route_Sflow26.0" />
<route id="route_Sflow36.0" edges=" in3 -E7 -E6 -E5 -E4 out6" />
<vehicle depart="20" id="Sflow36.0" route="route_Sflow36.0" />
<route id="route_Sflow46.0" edges=" in4 -E6 -E5 -E4 out6" />
<vehicle depart="20" id="Sflow46.0" route="route_Sflow46.0" />
<route id="route_Sflow56.0" edges=" in5 -E4 out6" />
<vehicle depart="20" id="Sflow56.0" route="route_Sflow56.0" />
<route id="route_Sflow66.0" edges=" in6 -E16 -E15 -E13 -E4 out6" />
<vehicle depart="20" id="Sflow66.0" route="route_Sflow66.0" />
<route id="route_Sflow76.0" edges=" in7 -E17 E16 out6" />
<vehicle depart="20" id="Sflow76.0" route="route_Sflow76.0" />
<route id="route_Sflow86.0" edges=" in8 E19 -E13 -E4 out6" />
<vehicle depart="20" id="Sflow86.0" route="route_Sflow86.0" />
<route id="route_Sflow17.0" edges=" in1 -E22 -E20 -E18 out7" />
<vehicle depart="24" id="Sflow17.0" route="route_Sflow17.0" />
<route id="route_Sflow27.0" edges=" in2 -E24 -E22 -E20 -E18 out7" />
<vehicle depart="24" id="Sflow27.0" route="route_Sflow27.0" />
<route id="route_Sflow37.0" edges=" in3 -E7 -E6 -E5 -E4 -E16 E17 out7" />
<vehicle depart="24" id="Sflow37.0" route="route_Sflow37.0" />
<route id="route_Sflow47.0" edges=" in4 -E10 -E23 -E22 -E20 -E18 out7" />
<vehicle depart="24" id="Sflow47.0" route="route_Sflow47.0" />
<route id="route_Sflow57.0" edges=" in5 E13 -E19 -E18 out7" />
<vehicle depart="24" id="Sflow57.0" route="route_Sflow57.0" />
<route id="route_Sflow67.0" edges=" in6 -E16 E17 out7" />
<vehicle depart="24" id="Sflow67.0" route="route_Sflow67.0" />
<route id="route_Sflow77.0" edges=" in7 E18 E19 E15 E17 out7" />
<vehicle depart="24" id="Sflow77.0" route="route_Sflow77.0" />
<route id="route_Sflow87.0" edges=" in8 -E18 out7" />
<vehicle depart="24" id="Sflow87.0" route="route_Sflow87.0" />
<route id="route_Sflow18.0" edges=" in1 -E22 -E20 out8" />
<vehicle depart="28" id="Sflow18.0" route="route_Sflow18.0" />
<route id="route_Sflow28.0" edges=" in2 -E24 -E22 -E20 out8" />
<vehicle depart="28" id="Sflow28.0" route="route_Sflow28.0" />
<route id="route_Sflow38.0" edges=" in3 -E7 -E6 -E5 E13 -E19 out8" />
<vehicle depart="28" id="Sflow38.0" route="route_Sflow38.0" />
<route id="route_Sflow48.0" edges=" in4 -E10 -E23 -E22 -E20 out8" />
<vehicle depart="28" id="Sflow48.0" route="route_Sflow48.0" />
<route id="route_Sflow58.0" edges=" in5 E13 -E19 out8" />
<vehicle depart="28" id="Sflow58.0" route="route_Sflow58.0" />
<route id="route_Sflow68.0" edges=" in6 E4 E13 -E19 out8" />
<vehicle depart="28" id="Sflow68.0" route="route_Sflow68.0" />
<route id="route_Sflow78.0" edges=" in7 E18 out8" />
<vehicle depart="28" id="Sflow78.0" route="route_Sflow78.0" />
<route id="route_Sflow88.0" edges=" in8 E19 E15 E17 E18 out8" />
<vehicle depart="28" id="Sflow88.0" route="route_Sflow88.0" />
<route id="route_Sflow11.1" edges=" in1 E24 E31 E9 -E23 out1" />
<vehicle depart="75" id="Sflow11.1" route="route_Sflow11.1" />
<route id="route_Sflow21.1" edges=" in2 -E24 out1" />
<vehicle depart="75" id="Sflow21.1" route="route_Sflow21.1" />
<route id="route_Sflow31.1" edges=" in3 E8 -E31 -E24 out1" />
<vehicle depart="75" id="Sflow31.1" route="route_Sflow31.1" />
<route id="route_Sflow41.1" edges=" in4 -E10 -E23 out1" />
<vehicle depart="75" id="Sflow41.1" route="route_Sflow41.1" />
<route id="route_Sflow51.1" edges=" in5 E13 E14 -E11 -E23 out1" />
<vehicle depart="75" id="Sflow51.1" route="route_Sflow51.1" />
<route id="route_Sflow61.1" edges=" in6 -E16 -E15 E14 -E11 -E23 out1" />
<vehicle depart="75" id="Sflow61.1" route="route_Sflow61.1" />
<route id="route_Sflow71.1" edges=" in7 E18 E20 E22 out1" />
<vehicle depart="75" id="Sflow71.1" route="route_Sflow71.1" />
<route id="route_Sflow81.1" edges=" in8 E20 E22 out1" />
<vehicle depart="75" id="Sflow81.1" route="route_Sflow81.1" />
<route id="route_Sflow12.1" edges=" in1 E24 out2" />
<vehicle depart="79" id="Sflow12.1" route="route_Sflow12.1" />
<route id="route_Sflow22.1" edges=" in2 E31 E9 -E23 E24 out2" />
<vehicle depart="79" id="Sflow22.1" route="route_Sflow22.1" />
<route id="route_Sflow32.1" edges=" in3 E8 -E31 out2" />
<vehicle depart="79" id="Sflow32.1" route="route_Sflow32.1" />
<route id="route_Sflow42.1" edges=" in4 -E10 -E9 -E31 out2" />
<vehicle depart="79" id="Sflow42.1" route="route_Sflow42.1" />
<route id="route_Sflow52.1" edges=" in5 E13 E14 -E11 -E9 -E31 out2" />
<vehicle depart="79" id="Sflow52.1" route="route_Sflow52.1" />
<route id="route_Sflow62.1" edges=" in6 -E16 -E15 E14 -E11 -E9 -E31 out2" />
<vehicle depart="79" id="Sflow62.1" route="route_Sflow62.1" />
<route id="route_Sflow72.1" edges=" in7 E18 E20 E22 E24 out2" />
<vehicle depart="79" id="Sflow72.1" route="route_Sflow72.1" />
<route id="route_Sflow82.1" edges=" in8 E20 E22 E24 out2" />
<vehicle depart="79" id="Sflow82.1" route="route_Sflow82.1" />
<route id="route_Sflow13.1" edges=" in1 E24 E31 -E8 out3" />
<vehicle depart="83" id="Sflow13.1" route="route_Sflow13.1" />
<route id="route_Sflow23.1" edges=" in2 E31 -E8 out3" />
<vehicle depart="83" id="Sflow23.1" route="route_Sflow23.1" />
<route id="route_Sflow33.1" edges=" in3 -E7 -E10 -E9 -E8 out3" />
<vehicle depart="83" id="Sflow33.1" route="route_Sflow33.1" />
<route id="route_Sflow43.1" edges=" in4 E7 out3" />
<vehicle depart="83" id="Sflow43.1" route="route_Sflow43.1" />
<route id="route_Sflow53.1" edges=" in5 E5 E6 E7 out3" />
<vehicle depart="83" id="Sflow53.1" route="route_Sflow53.1" />
<route id="route_Sflow63.1" edges=" in6 E4 E5 E6 E7 out3" />
<vehicle depart="83" id="Sflow63.1" route="route_Sflow63.1" />
<route id="route_Sflow73.1" edges=" in7 E18 E20 E21 E12 E6 E7 out3" />
<vehicle depart="83" id="Sflow73.1" route="route_Sflow73.1" />
<route id="route_Sflow83.1" edges=" in8 E19 E14 -E11 -E9 -E8 out3" />
<vehicle depart="83" id="Sflow83.1" route="route_Sflow83.1" />
<route id="route_Sflow14.1" edges=" in1 E23 E10 out4" />
<vehicle depart="87" id="Sflow14.1" route="route_Sflow14.1" />
<route id="route_Sflow24.1" edges=" in2 E31 -E8 -E7 out4" />
<vehicle depart="87" id="Sflow24.1" route="route_Sflow24.1" />
<route id="route_Sflow34.1" edges=" in3 -E7 out4" />
<vehicle depart="87" id="Sflow34.1" route="route_Sflow34.1" />
<route id="route_Sflow44.1" edges=" in4 -E10 -E9 -E8 -E7 out4" />
<vehicle depart="87" id="Sflow44.1" route="route_Sflow44.1" />
<route id="route_Sflow54.1" edges=" in5 E5 E6 out4" />
<vehicle depart="87" id="Sflow54.1" route="route_Sflow54.1" />
<route id="route_Sflow64.1" edges=" in6 E4 E5 E6 out4" />
<vehicle depart="87" id="Sflow64.1" route="route_Sflow64.1" />
<route id="route_Sflow74.1" edges=" in7 E18 E20 E21 E12 E6 out4" />
<vehicle depart="87" id="Sflow74.1" route="route_Sflow74.1" />
<route id="route_Sflow84.1" edges=" in8 E20 E21 E12 E6 out4" />
<vehicle depart="87" id="Sflow84.1" route="route_Sflow84.1" />
<route id="route_Sflow15.1" edges=" in1 -E22 E21 E12 -E5 out5" />
<vehicle depart="91" id="Sflow15.1" route="route_Sflow15.1" />
<route id="route_Sflow25.1" edges=" in2 E31 E9 E11 E12 -E5 out5" />
<vehicle depart="91" id="Sflow25.1" route="route_Sflow25.1" />
<route id="route_Sflow35.1" edges=" in3 -E7 -E6 -E5 out5" />
<vehicle depart="91" id="Sflow35.1" route="route_Sflow35.1" />
<route id="route_Sflow45.1" edges=" in4 -E6 -E5 out5" />
<vehicle depart="91" id="Sflow45.1" route="route_Sflow45.1" />
<route id="route_Sflow55.1" edges=" in5 E13 E14 E12 -E5 out5" />
<vehicle depart="91" id="Sflow55.1" route="route_Sflow55.1" />
<route id="route_Sflow65.1" edges=" in6 E4 out5" />
<vehicle depart="91" id="Sflow65.1" route="route_Sflow65.1" />
<route id="route_Sflow75.1" edges=" in7 -E17 E16 E4 out5" />
<vehicle depart="91" id="Sflow75.1" route="route_Sflow75.1" />
<route id="route_Sflow85.1" edges=" in8 E19 -E13 out5" />
<vehicle depart="91" id="Sflow85.1" route="route_Sflow85.1" />
<route id="route_Sflow16.1" edges=" in1 E23 E11 -E14 E15 E16 out6" />
<vehicle depart="95" id="Sflow16.1" route="route_Sflow16.1" />
<route id="route_Sflow26.1" edges=" in2 E31 E9 E11 -E14 E15 E16 out6" />
<vehicle depart="95" id="Sflow26.1" route="route_Sflow26.1" />
<route id="route_Sflow36.1" edges=" in3 -E7 -E6 -E5 -E4 out6" />
<vehicle depart="95" id="Sflow36.1" route="route_Sflow36.1" />
<route id="route_Sflow46.1" edges=" in4 -E6 -E5 -E4 out6" />
<vehicle depart="95" id="Sflow46.1" route="route_Sflow46.1" />
<route id="route_Sflow56.1" edges=" in5 -E4 out6" />
<vehicle depart="95" id="Sflow56.1" route="route_Sflow56.1" />
<route id="route_Sflow66.1" edges=" in6 E4 E13 E15 E16 out6" />
<vehicle depart="95" id="Sflow66.1" route="route_Sflow66.1" />
<route id="route_Sflow76.1" edges=" in7 -E17 E16 out6" />
<vehicle depart="95" id="Sflow76.1" route="route_Sflow76.1" />
<route id="route_Sflow86.1" edges=" in8 E19 E15 E16 out6" />
<vehicle depart="95" id="Sflow86.1" route="route_Sflow86.1" />
<route id="route_Sflow17.1" edges=" in1 -E22 -E20 -E18 out7" />
<vehicle depart="99" id="Sflow17.1" route="route_Sflow17.1" />
<route id="route_Sflow27.1" edges=" in2 -E24 -E22 -E20 -E18 out7" />
<vehicle depart="99" id="Sflow27.1" route="route_Sflow27.1" />
<route id="route_Sflow37.1" edges=" in3 E8 E9 E11 -E14 E15 E17 out7" />
<vehicle depart="99" id="Sflow37.1" route="route_Sflow37.1" />
<route id="route_Sflow47.1" edges=" in4 -E10 E11 -E14 E15 E17 out7" />
<vehicle depart="99" id="Sflow47.1" route="route_Sflow47.1" />
<route id="route_Sflow57.1" edges=" in5 E13 E15 E17 out7" />
<vehicle depart="99" id="Sflow57.1" route="route_Sflow57.1" />
<route id="route_Sflow67.1" edges=" in6 -E16 E17 out7" />
<vehicle depart="99" id="Sflow67.1" route="route_Sflow67.1" />
<route id="route_Sflow77.1" edges=" in7 E18 E19 E15 E17 out7" />
<vehicle depart="99" id="Sflow77.1" route="route_Sflow77.1" />
<route id="route_Sflow87.1" edges=" in8 -E18 out7" />
<vehicle depart="99" id="Sflow87.1" route="route_Sflow87.1" />
<route id="route_Sflow18.1" edges=" in1 -E22 -E20 out8" />
<vehicle depart="103" id="Sflow18.1" route="route_Sflow18.1" />
<route id="route_Sflow28.1" edges=" in2 -E24 -E22 -E20 out8" />
<vehicle depart="103" id="Sflow28.1" route="route_Sflow28.1" />
<route id="route_Sflow38.1" edges=" in3 E8 E9 E11 -E21 -E20 out8" />
<vehicle depart="103" id="Sflow38.1" route="route_Sflow38.1" />
<route id="route_Sflow48.1" edges=" in4 -E10 E11 -E21 -E20 out8" />
<vehicle depart="103" id="Sflow48.1" route="route_Sflow48.1" />
<route id="route_Sflow58.1" edges=" in5 E13 -E19 out8" />
<vehicle depart="103" id="Sflow58.1" route="route_Sflow58.1" />
<route id="route_Sflow68.1" edges=" in6 -E16 E17 E18 out8" />
<vehicle depart="103" id="Sflow68.1" route="route_Sflow68.1" />
<route id="route_Sflow78.1" edges=" in7 E18 out8" />
<vehicle depart="103" id="Sflow78.1" route="route_Sflow78.1" />
<route id="route_Sflow88.1" edges=" in8 E19 E15 E17 E18 out8" />
<vehicle depart="103" id="Sflow88.1" route="route_Sflow88.1" />
<route id="route_Sflow11.2" edges=" in1 E24 E31 E9 -E23 out1" />
<vehicle depart="150" id="Sflow11.2" route="route_Sflow11.2" />
<route id="route_Sflow21.2" edges=" in2 -E24 out1" />
<vehicle depart="150" id="Sflow21.2" route="route_Sflow21.2" />
<route id="route_Sflow31.2" edges=" in3 E8 -E31 -E24 out1" />
<vehicle depart="150" id="Sflow31.2" route="route_Sflow31.2" />
<route id="route_Sflow41.2" edges=" in4 -E10 -E23 out1" />
<vehicle depart="150" id="Sflow41.2" route="route_Sflow41.2" />
<route id="route_Sflow51.2" edges=" in5 E13 E14 -E11 -E23 out1" />
<vehicle depart="150" id="Sflow51.2" route="route_Sflow51.2" />
<route id="route_Sflow61.2" edges=" in6 -E16 -E15 E14 -E11 -E23 out1" />
<vehicle depart="150" id="Sflow61.2" route="route_Sflow61.2" />
<route id="route_Sflow71.2" edges=" in7 E18 E20 E22 out1" />
<vehicle depart="150" id="Sflow71.2" route="route_Sflow71.2" />
<route id="route_Sflow81.2" edges=" in8 E20 E22 out1" />
<vehicle depart="150" id="Sflow81.2" route="route_Sflow81.2" />
<route id="route_Sflow12.2" edges=" in1 E24 out2" />
<vehicle depart="154" id="Sflow12.2" route="route_Sflow12.2" />
<route id="route_Sflow22.2" edges=" in2 E31 E9 -E23 E24 out2" />
<vehicle depart="154" id="Sflow22.2" route="route_Sflow22.2" />
<route id="route_Sflow32.2" edges=" in3 E8 -E31 out2" />
<vehicle depart="154" id="Sflow32.2" route="route_Sflow32.2" />
<route id="route_Sflow42.2" edges=" in4 E7 E8 -E31 out2" />
<vehicle depart="154" id="Sflow42.2" route="route_Sflow42.2" />
<route id="route_Sflow52.2" edges=" in5 E13 E14 -E11 -E9 -E31 out2" />
<vehicle depart="154" id="Sflow52.2" route="route_Sflow52.2" />
<route id="route_Sflow62.2" edges=" in6 -E16 -E15 E14 -E11 -E9 -E31 out2" />
<vehicle depart="154" id="Sflow62.2" route="route_Sflow62.2" />
<route id="route_Sflow72.2" edges=" in7 E18 E20 E22 E24 out2" />
<vehicle depart="154" id="Sflow72.2" route="route_Sflow72.2" />
<route id="route_Sflow82.2" edges=" in8 E20 E22 E24 out2" />
<vehicle depart="154" id="Sflow82.2" route="route_Sflow82.2" />
<route id="route_Sflow13.2" edges=" in1 E24 E31 -E8 out3" />
<vehicle depart="158" id="Sflow13.2" route="route_Sflow13.2" />
<route id="route_Sflow23.2" edges=" in2 E31 -E8 out3" />
<vehicle depart="158" id="Sflow23.2" route="route_Sflow23.2" />
<route id="route_Sflow33.2" edges=" in3 -E7 -E10 -E9 -E8 out3" />
<vehicle depart="158" id="Sflow33.2" route="route_Sflow33.2" />
<route id="route_Sflow43.2" edges=" in4 E7 out3" />
<vehicle depart="158" id="Sflow43.2" route="route_Sflow43.2" />
<route id="route_Sflow53.2" edges=" in5 E5 E6 E7 out3" />
<vehicle depart="158" id="Sflow53.2" route="route_Sflow53.2" />
<route id="route_Sflow63.2" edges=" in6 E4 E5 E6 E7 out3" />
<vehicle depart="158" id="Sflow63.2" route="route_Sflow63.2" />
<route id="route_Sflow73.2" edges=" in7 -E17 -E15 E14 -E11 -E9 -E8 out3" />
<vehicle depart="158" id="Sflow73.2" route="route_Sflow73.2" />
<route id="route_Sflow83.2" edges=" in8 E19 E14 -E11 -E9 -E8 out3" />
<vehicle depart="158" id="Sflow83.2" route="route_Sflow83.2" />
<route id="route_Sflow14.2" edges=" in1 E23 E10 out4" />
<vehicle depart="162" id="Sflow14.2" route="route_Sflow14.2" />
<route id="route_Sflow24.2" edges=" in2 E31 -E8 -E7 out4" />
<vehicle depart="162" id="Sflow24.2" route="route_Sflow24.2" />
<route id="route_Sflow34.2" edges=" in3 -E7 out4" />
<vehicle depart="162" id="Sflow34.2" route="route_Sflow34.2" />
<route id="route_Sflow44.2" edges=" in4 -E10 E11 E12 E6 out4" />
<vehicle depart="162" id="Sflow44.2" route="route_Sflow44.2" />
<route id="route_Sflow54.2" edges=" in5 E5 E6 out4" />
<vehicle depart="162" id="Sflow54.2" route="route_Sflow54.2" />
<route id="route_Sflow64.2" edges=" in6 E4 E5 E6 out4" />
<vehicle depart="162" id="Sflow64.2" route="route_Sflow64.2" />
<route id="route_Sflow74.2" edges=" in7 -E17 -E15 E14 E12 E6 out4" />
<vehicle depart="162" id="Sflow74.2" route="route_Sflow74.2" />
<route id="route_Sflow84.2" edges=" in8 E19 E14 E12 E6 out4" />
<vehicle depart="162" id="Sflow84.2" route="route_Sflow84.2" />
<route id="route_Sflow15.2" edges=" in1 E23 E11 E12 -E5 out5" />
<vehicle depart="166" id="Sflow15.2" route="route_Sflow15.2" />
<route id="route_Sflow25.2" edges=" in2 E31 E9 E11 E12 -E5 out5" />
<vehicle depart="166" id="Sflow25.2" route="route_Sflow25.2" />
<route id="route_Sflow35.2" edges=" in3 -E7 -E6 -E5 out5" />
<vehicle depart="166" id="Sflow35.2" route="route_Sflow35.2" />
<route id="route_Sflow45.2" edges=" in4 -E6 -E5 out5" />
<vehicle depart="166" id="Sflow45.2" route="route_Sflow45.2" />
<route id="route_Sflow55.2" edges=" in5 E13 E14 E12 -E5 out5" />
<vehicle depart="166" id="Sflow55.2" route="route_Sflow55.2" />
<route id="route_Sflow65.2" edges=" in6 E4 out5" />
<vehicle depart="166" id="Sflow65.2" route="route_Sflow65.2" />
<route id="route_Sflow75.2" edges=" in7 -E17 E16 E4 out5" />
<vehicle depart="166" id="Sflow75.2" route="route_Sflow75.2" />
<route id="route_Sflow85.2" edges=" in8 E19 -E13 out5" />
<vehicle depart="166" id="Sflow85.2" route="route_Sflow85.2" />
<route id="route_Sflow16.2" edges=" in1 E23 E11 -E14 E15 E16 out6" />
<vehicle depart="170" id="Sflow16.2" route="route_Sflow16.2" />
<route id="route_Sflow26.2" edges=" in2 E31 E9 E11 -E14 E15 E16 out6" />
<vehicle depart="170" id="Sflow26.2" route="route_Sflow26.2" />
<route id="route_Sflow36.2" edges=" in3 -E7 -E6 -E5 -E4 out6" />
<vehicle depart="170" id="Sflow36.2" route="route_Sflow36.2" />
<route id="route_Sflow46.2" edges=" in4 -E6 -E5 -E4 out6" />
<vehicle depart="170" id="Sflow46.2" route="route_Sflow46.2" />
<route id="route_Sflow56.2" edges=" in5 -E4 out6" />
<vehicle depart="170" id="Sflow56.2" route="route_Sflow56.2" />
<route id="route_Sflow66.2" edges=" in6 E4 E13 E15 E16 out6" />
<vehicle depart="170" id="Sflow66.2" route="route_Sflow66.2" />
<route id="route_Sflow76.2" edges=" in7 -E17 E16 out6" />
<vehicle depart="170" id="Sflow76.2" route="route_Sflow76.2" />
<route id="route_Sflow86.2" edges=" in8 E19 E15 E16 out6" />
<vehicle depart="170" id="Sflow86.2" route="route_Sflow86.2" />
<route id="route_Sflow17.2" edges=" in1 -E22 -E20 -E18 out7" />
<vehicle depart="174" id="Sflow17.2" route="route_Sflow17.2" />
<route id="route_Sflow27.2" edges=" in2 -E24 -E22 -E20 -E18 out7" />
<vehicle depart="174" id="Sflow27.2" route="route_Sflow27.2" />
<route id="route_Sflow37.2" edges=" in3 E8 E9 E11 -E14 E15 E17 out7" />
<vehicle depart="174" id="Sflow37.2" route="route_Sflow37.2" />
<route id="route_Sflow47.2" edges=" in4 -E10 E11 -E14 E15 E17 out7" />
<vehicle depart="174" id="Sflow47.2" route="route_Sflow47.2" />
<route id="route_Sflow57.2" edges=" in5 E13 E15 E17 out7" />
<vehicle depart="174" id="Sflow57.2" route="route_Sflow57.2" />
<route id="route_Sflow67.2" edges=" in6 -E16 E17 out7" />
<vehicle depart="174" id="Sflow67.2" route="route_Sflow67.2" />
<route id="route_Sflow77.2" edges=" in7 E18 E19 E15 E17 out7" />
<vehicle depart="174" id="Sflow77.2" route="route_Sflow77.2" />
<route id="route_Sflow87.2" edges=" in8 -E18 out7" />
<vehicle depart="174" id="Sflow87.2" route="route_Sflow87.2" />
<route id="route_Sflow18.2" edges=" in1 -E22 -E20 out8" />
<vehicle depart="178" id="Sflow18.2" route="route_Sflow18.2" />
<route id="route_Sflow28.2" edges=" in2 -E24 -E22 -E20 out8" />
<vehicle depart="178" id="Sflow28.2" route="route_Sflow28.2" />
<route id="route_Sflow38.2" edges=" in3 E8 E9 E11 -E14 -E19 out8" />
<vehicle depart="178" id="Sflow38.2" route="route_Sflow38.2" />
<route id="route_Sflow48.2" edges=" in4 -E10 E11 -E14 -E19 out8" />
<vehicle depart="178" id="Sflow48.2" route="route_Sflow48.2" />
<route id="route_Sflow58.2" edges=" in5 E13 -E19 out8" />
<vehicle depart="178" id="Sflow58.2" route="route_Sflow58.2" />
<route id="route_Sflow68.2" edges=" in6 -E16 -E15 -E19 out8" />
<vehicle depart="178" id="Sflow68.2" route="route_Sflow68.2" />
<route id="route_Sflow78.2" edges=" in7 E18 out8" />
<vehicle depart="178" id="Sflow78.2" route="route_Sflow78.2" />
<route id="route_Sflow88.2" edges=" in8 E19 E14 -E21 -E20 out8" />
<vehicle depart="178" id="Sflow88.2" route="route_Sflow88.2" />
<route id="route_Sflow11.3" edges=" in1 E23 E11 -E21 E22 out1" />
<vehicle depart="225" id="Sflow11.3" route="route_Sflow11.3" />
<route id="route_Sflow21.3" edges=" in2 -E24 out1" />
<vehicle depart="225" id="Sflow21.3" route="route_Sflow21.3" />
<route id="route_Sflow31.3" edges=" in3 E8 -E31 -E24 out1" />
<vehicle depart="225" id="Sflow31.3" route="route_Sflow31.3" />
<route id="route_Sflow41.3" edges=" in4 -E10 -E23 out1" />
<vehicle depart="225" id="Sflow41.3" route="route_Sflow41.3" />
<route id="route_Sflow51.3" edges=" in5 E5 -E12 -E21 E22 out1" />
<vehicle depart="225" id="Sflow51.3" route="route_Sflow51.3" />
<route id="route_Sflow61.3" edges=" in6 -E16 -E15 E14 -E11 -E23 out1" />
<vehicle depart="225" id="Sflow61.3" route="route_Sflow61.3" />
<route id="route_Sflow71.3" edges=" in7 E18 E20 E22 out1" />
<vehicle depart="225" id="Sflow71.3" route="route_Sflow71.3" />
<route id="route_Sflow81.3" edges=" in8 E20 E22 out1" />
<vehicle depart="225" id="Sflow81.3" route="route_Sflow81.3" />
<route id="route_Sflow12.3" edges=" in1 E24 out2" />
<vehicle depart="229" id="Sflow12.3" route="route_Sflow12.3" />
<route id="route_Sflow22.3" edges=" in2 E31 E9 -E23 E24 out2" />
<vehicle depart="229" id="Sflow22.3" route="route_Sflow22.3" />
<route id="route_Sflow32.3" edges=" in3 E8 -E31 out2" />
<vehicle depart="229" id="Sflow32.3" route="route_Sflow32.3" />
<route id="route_Sflow42.3" edges=" in4 E7 E8 -E31 out2" />
<vehicle depart="229" id="Sflow42.3" route="route_Sflow42.3" />
<route id="route_Sflow52.3" edges=" in5 E5 -E12 -E21 E22 E24 out2" />
<vehicle depart="229" id="Sflow52.3" route="route_Sflow52.3" />
<route id="route_Sflow62.3" edges=" in6 -E16 -E15 E14 -E11 -E9 -E31 out2" />
<vehicle depart="229" id="Sflow62.3" route="route_Sflow62.3" />
<route id="route_Sflow72.3" edges=" in7 E18 E20 E22 E24 out2" />
<vehicle depart="229" id="Sflow72.3" route="route_Sflow72.3" />
<route id="route_Sflow82.3" edges=" in8 E20 E22 E24 out2" />
<vehicle depart="229" id="Sflow82.3" route="route_Sflow82.3" />
<route id="route_Sflow13.3" edges=" in1 E24 E31 -E8 out3" />
<vehicle depart="233" id="Sflow13.3" route="route_Sflow13.3" />
<route id="route_Sflow23.3" edges=" in2 E31 -E8 out3" />
<vehicle depart="233" id="Sflow23.3" route="route_Sflow23.3" />
<route id="route_Sflow33.3" edges=" in3 -E7 -E10 -E9 -E8 out3" />
<vehicle depart="233" id="Sflow33.3" route="route_Sflow33.3" />
<route id="route_Sflow43.3" edges=" in4 E7 out3" />
<vehicle depart="233" id="Sflow43.3" route="route_Sflow43.3" />
<route id="route_Sflow53.3" edges=" in5 E5 E6 E7 out3" />
<vehicle depart="233" id="Sflow53.3" route="route_Sflow53.3" />
<route id="route_Sflow63.3" edges=" in6 E4 E5 E6 E7 out3" />
<vehicle depart="233" id="Sflow63.3" route="route_Sflow63.3" />
<route id="route_Sflow73.3" edges=" in7 -E17 -E15 E14 -E11 -E9 -E8 out3" />
<vehicle depart="233" id="Sflow73.3" route="route_Sflow73.3" />
<route id="route_Sflow83.3" edges=" in8 E19 E14 -E11 -E9 -E8 out3" />
<vehicle depart="233" id="Sflow83.3" route="route_Sflow83.3" />
<route id="route_Sflow14.3" edges=" in1 E23 E10 out4" />
<vehicle depart="237" id="Sflow14.3" route="route_Sflow14.3" />
<route id="route_Sflow24.3" edges=" in2 E31 -E8 -E7 out4" />
<vehicle depart="237" id="Sflow24.3" route="route_Sflow24.3" />
<route id="route_Sflow34.3" edges=" in3 -E7 out4" />
<vehicle depart="237" id="Sflow34.3" route="route_Sflow34.3" />
<route id="route_Sflow44.3" edges=" in4 -E6 -E12 -E11 E10 out4" />
<vehicle depart="237" id="Sflow44.3" route="route_Sflow44.3" />
<route id="route_Sflow54.3" edges=" in5 E5 E6 out4" />
<vehicle depart="237" id="Sflow54.3" route="route_Sflow54.3" />
<route id="route_Sflow64.3" edges=" in6 E4 E5 E6 out4" />
<vehicle depart="237" id="Sflow64.3" route="route_Sflow64.3" />
<route id="route_Sflow74.3" edges=" in7 -E17 -E15 E14 E12 E6 out4" />
<vehicle depart="237" id="Sflow74.3" route="route_Sflow74.3" />
<route id="route_Sflow84.3" edges=" in8 E20 E21 E12 E6 out4" />
<vehicle depart="237" id="Sflow84.3" route="route_Sflow84.3" />
<route id="route_Sflow15.3" edges=" in1 E23 E11 -E14 -E13 out5" />
<vehicle depart="241" id="Sflow15.3" route="route_Sflow15.3" />
<route id="route_Sflow25.3" edges=" in2 -E24 E23 E11 -E14 -E13 out5" />
<vehicle depart="241" id="Sflow25.3" route="route_Sflow25.3" />
<route id="route_Sflow35.3" edges=" in3 -E7 -E6 -E5 out5" />
<vehicle depart="241" id="Sflow35.3" route="route_Sflow35.3" />
<route id="route_Sflow45.3" edges=" in4 -E6 -E5 out5" />
<vehicle depart="241" id="Sflow45.3" route="route_Sflow45.3" />
<route id="route_Sflow55.3" edges=" in5 E13 E14 E12 -E5 out5" />
<vehicle depart="241" id="Sflow55.3" route="route_Sflow55.3" />
<route id="route_Sflow65.3" edges=" in6 E4 out5" />
<vehicle depart="241" id="Sflow65.3" route="route_Sflow65.3" />
<route id="route_Sflow75.3" edges=" in7 -E17 E16 E4 out5" />
<vehicle depart="241" id="Sflow75.3" route="route_Sflow75.3" />
<route id="route_Sflow85.3" edges=" in8 E19 -E13 out5" />
<vehicle depart="241" id="Sflow85.3" route="route_Sflow85.3" />
<route id="route_Sflow16.3" edges=" in1 E23 E11 -E14 E15 E16 out6" />
<vehicle depart="245" id="Sflow16.3" route="route_Sflow16.3" />
<route id="route_Sflow26.3" edges=" in2 -E24 E23 E11 -E14 E15 E16 out6" />
<vehicle depart="245" id="Sflow26.3" route="route_Sflow26.3" />
<route id="route_Sflow36.3" edges=" in3 -E7 -E6 -E5 -E4 out6" />
<vehicle depart="245" id="Sflow36.3" route="route_Sflow36.3" />
<route id="route_Sflow46.3" edges=" in4 -E6 -E5 -E4 out6" />
<vehicle depart="245" id="Sflow46.3" route="route_Sflow46.3" />
<route id="route_Sflow56.3" edges=" in5 -E4 out6" />