<?xml version="1.0" encoding="UTF-8"?>

<!-- generated on 2022-01-18 14:18:59 by Eclipse SUMO netedit Version 1.11.0
<configuration xmlns:xsi="http://www.w3.org/2001/XMLSchema-instance" xsi:noNamespaceSchemaLocation="http://sumo.dlr.de/xsd/netconvertConfiguration.xsd">

    <output>
        <output-file value="/Users/davidneiman/Documents/GitHub.nosync/traffic-routing/shortlong2_16782/lanetest.net.xml"/>
    </output>

    <processing>
        <offset.disable-normalization value="true"/>
    </processing>

    <junctions>
        <no-turnarounds value="true"/>
    </junctions>

    <report>
        <aggregate-warnings value="5"/>
    </report>

</configuration>
-->

<net version="1.9" junctionCornerDetail="5" limitTurnSpeed="5.50" xmlns:xsi="http://www.w3.org/2001/XMLSchema-instance" xsi:noNamespaceSchemaLocation="http://sumo.dlr.de/xsd/net_file.xsd">

    <location netOffset="0.00,0.00" convBoundary="-135.07,-239.68,314.99,237.53" origBoundary="10000000000.00,10000000000.00,-10000000000.00,-10000000000.00" projParameter="!"/>

    <edge id=":J1_0" function="internal">
        <lane id=":J1_0_0" index="0" speed="7.60" length="4.02" shape="-47.63,-61.19 -48.35,-60.26 -48.74,-59.53 -48.91,-58.71 -48.94,-57.53"/>
    </edge>
    <edge id=":J1_1" function="internal">
        <lane id=":J1_1_0" index="0" speed="7.31" length="2.40" shape="-53.73,-59.36 -52.14,-57.55"/>
    </edge>
    <edge id=":J2_0" function="internal">
        <lane id=":J2_0_0" index="0" speed="7.08" length="7.67" shape="25.39,-155.52 25.51,-153.74 26.22,-152.15 27.51,-150.75 29.39,-149.53"/>
    </edge>
    <edge id=":J2_1" function="internal">
        <lane id=":J2_1_0" index="0" speed="11.96" length="8.38" shape="25.39,-155.52 25.21,-153.04 24.97,-151.30 24.33,-149.73 22.90,-147.75"/>
    </edge>
    <edge id=":J3_0" function="internal">
        <lane id=":J3_0_0" index="0" speed="13.89" length="7.92" shape="-49.61,37.19 -49.68,45.13"/>
        <lane id=":J3_0_1" index="1" speed="13.89" length="7.92" shape="-52.81,37.17 -52.88,45.07"/>
    </edge>
    <edge id=":J3_2" function="internal">
        <lane id=":J3_2_0" index="0" speed="8.97" length="7.53" shape="-56.76,38.80 -55.05,40.65 -53.83,42.31 -53.11,43.78 -52.88,45.07"/>
    </edge>
    <edge id=":J5_0" function="internal">
        <lane id=":J5_0_0" index="0" speed="6.75" length="5.90" shape="-51.02,125.90 -50.87,127.42 -50.36,128.75 -49.50,129.88 -48.28,130.81"/>
    </edge>
    <edge id=":J5_1" function="internal">
        <lane id=":J5_1_0" index="0" speed="8.95" length="5.64" shape="-54.22,125.85 -54.29,127.50 -54.52,128.64 -55.08,129.67 -56.10,130.97"/>
    </edge>
    <edge id=":J7_0" function="internal">
        <lane id=":J7_0_0" index="0" speed="7.78" length="7.35" shape="20.80,168.74 18.90,170.00 17.51,171.33 16.63,172.72 16.26,174.18"/>
    </edge>
    <edge id=":J7_1" function="internal">
        <lane id=":J7_1_0" index="0" speed="7.15" length="3.73" shape="13.93,167.76 15.08,168.76 15.86,170.16 15.98,170.75"/>
    </edge>
    <edge id=":J7_2" function="internal">
        <lane id=":J7_2_0" index="0" speed="7.15" length="3.46" shape="15.98,170.75 16.25,171.97 16.26,174.18"/>
    </edge>
    <edge id=":J9_0" function="internal">
        <lane id=":J9_0_0" index="0" speed="3.99" length="3.95" shape="315.73,-1.55 316.71,-0.86 317.05,-0.16 316.74,0.54 315.78,1.27"/>
    </edge>

    <edge id="E11" from="J2" to="J1" priority="-1">
        <lane id="E11_0" index="0" speed="13.89" length="111.65" shape="22.90,-147.75 -47.63,-61.19"/>
    </edge>
    <edge id="E2" from="J1" to="J3" priority="-1">
        <lane id="E2_0" index="0" speed="13.89" length="94.73" shape="-48.94,-57.53 -49.61,37.19"/>
        <lane id="E2_1" index="1" speed="13.89" length="94.73" shape="-52.14,-57.55 -52.81,37.17"/>
    </edge>
    <edge id="E6" from="J5" to="J7" priority="-1">
        <lane id="E6_0" index="0" speed="13.89" length="72.36" shape="-48.28,130.81 13.93,167.76"/>
    </edge>
    <edge id="E8" from="J2" to="J9" priority="-1">
        <lane id="E8_0" index="0" speed="13.89" length="322.32" shape="29.39,-149.53 315.73,-1.55"/>
    </edge>
    <edge id="E9" from="J9" to="J7" priority="-1">
        <lane id="E9_0" index="0" speed="13.89" length="339.21" shape="315.78,1.27 20.80,168.74"/>
    </edge>
    <edge id="L" from="J3" to="J5" priority="-1">
        <lane id="L_0" index="0" speed="13.89" length="80.78" shape="-49.68,45.13 -51.02,125.90"/>
        <lane id="L_1" index="1" speed="13.89" length="80.78" shape="-52.88,45.07 -54.22,125.85"/>
    </edge>
    <edge id="goalL" from="J5" to="J6" priority="-1">
        <lane id="goalL_0" index="0" speed="13.89" length="84.84" shape="-56.10,130.97 -110.00,196.48"/>
    </edge>
    <edge id="goalR" from="J7" to="J8" priority="-1">
        <lane id="goalR_0" index="0" speed="13.89" length="63.63" shape="16.26,174.18 11.64,237.64"/>
    </edge>
    <edge id="startL0" from="J0" to="J1" priority="-1">
        <lane id="startL0_0" index="0" speed="13.89" length="106.58" shape="-107.05,-151.65 -53.73,-59.36"/>
    </edge>
    <edge id="startL1" from="J4" to="J3" priority="-1">
        <lane id="startL1_0" index="0" speed="13.89" length="108.68" shape="-133.95,-37.71 -56.76,38.80"/>
    </edge>
    <edge id="startR" from="J10" to="J2" priority="-1">
        <lane id="startR_0" index="0" speed="13.89" length="84.35" shape="32.93,-239.54 25.39,-155.52"/>
    </edge>

    <junction id="J0" type="dead_end" x="-108.43" y="-150.85" incLanes="" intLanes="" shape="-108.43,-150.85 -105.66,-152.45"/>
    <junction id="J1" type="priority" x="-53.75" y="-56.21" incLanes="E11_0 startL0_0" intLanes=":J1_0_0 :J1_1_0" shape="-46.39,-60.18 -48.87,-62.20 -50.46,-60.49 -51.10,-60.02 -51.62,-59.81 -52.04,-59.86 -52.34,-60.16 -55.11,-58.56 -53.74,-57.57 -47.34,-57.52 -47.29,-58.60 -47.20,-58.97 -47.03,-59.32 -46.77,-59.70">
        <request index="0" response="00" foes="00" cont="0"/>
        <request index="1" response="00" foes="00" cont="0"/>
    </junction>
    <junction id="J10" type="dead_end" x="31.34" y="-239.68" incLanes="" intLanes="" shape="31.34,-239.68 34.53,-239.39"/>
    <junction id="J2" type="priority" x="23.36" y="-150.85" incLanes="startR_0" intLanes=":J2_0_0 :J2_1_0" shape="28.65,-148.11 30.12,-150.95 28.27,-152.22 27.65,-152.93 27.22,-153.70 27.00,-154.51 26.98,-155.38 23.79,-155.67 23.60,-152.90 23.46,-151.92 23.16,-151.00 22.59,-150.00 21.66,-148.76 24.14,-146.74 25.59,-148.05 26.33,-148.39 27.09,-148.51 27.86,-148.42">
        <request index="0" response="00" foes="00" cont="0"/>
        <request index="1" response="00" foes="00" cont="0"/>
    </junction>
    <junction id="J3" type="priority" x="-54.45" y="43.34" incLanes="E2_0 E2_1 startL1_0" intLanes=":J3_0_0 :J3_0_1 :J3_2_0" shape="-48.01,37.20 -54.41,37.16 -54.55,37.97 -54.72,38.14 -54.96,38.14 -55.26,37.98 -55.63,37.66 -57.89,39.94 -55.98,42.02 -55.32,42.92 -54.85,43.72 -54.57,44.43 -54.48,45.05 -48.08,45.15">
        <request index="0" response="000" foes="100" cont="0"/>
        <request index="1" response="000" foes="100" cont="0"/>
        <request index="2" response="011" foes="011" cont="0"/>
    </junction>
    <junction id="J4" type="dead_end" x="-135.07" y="-36.58" incLanes="" intLanes="" shape="-135.07,-36.58 -132.82,-38.85"/>
    <junction id="J5" type="priority" x="-55.86" y="128.17" incLanes="L_0 L_1" intLanes=":J5_0_0 :J5_1_0" shape="-49.10,132.18 -47.46,129.43 -48.57,128.51 -48.95,127.96 -49.22,127.35 -49.37,126.67 -49.42,125.93 -55.82,125.82 -55.92,127.49 -56.06,128.08 -56.32,128.62 -56.74,129.21 -57.33,129.96 -54.86,131.99 -53.43,131.05 -52.53,130.95 -51.50,131.11 -50.36,131.52">
        <request index="0" response="00" foes="00" cont="0"/>
        <request index="1" response="00" foes="00" cont="0"/>
    </junction>
    <junction id="J6" type="dead_end" x="-111.24" y="195.46" incLanes="goalL_0" intLanes="" shape="-108.77,197.50 -111.24,195.46"/>
    <junction id="J7" type="priority" x="14.95" y="170.23" incLanes="E9_0 E6_0" intLanes=":J7_0_0 :J7_2_0" shape="21.59,170.14 20.01,167.35 18.60,167.71 17.76,167.64 16.84,167.39 15.84,166.97 14.74,166.38 13.11,169.14 14.10,170.17 14.42,170.91 14.62,171.81 14.70,172.86 14.67,174.07 17.86,174.30 18.34,172.89 18.87,172.19 19.59,171.50 20.49,170.82">
        <request index="0" response="00" foes="10" cont="0"/>
        <request index="1" response="01" foes="01" cont="1"/>
    </junction>
    <junction id="J8" type="dead_end" x="10.04" y="237.53" incLanes="goalR_0" intLanes="" shape="13.23,237.76 10.04,237.53"/>
    <junction id="J9" type="priority" x="314.99" y="-0.12" incLanes="E8_0" intLanes=":J9_0_0" shape="316.46,-2.97 314.99,-0.12 316.57,2.66 318.84,0.74 319.11,-0.21 318.80,-1.14 317.92,-2.06">
        <request index="0" response="0" foes="0" cont="0"/>
    </junction>

    <junction id=":J7_2_0" type="internal" x="15.98" y="170.75" incLanes=":J7_1_0 E9_0" intLanes=":J7_0_0"/>

    <connection from="E11" to="E2" fromLane="0" toLane="0" via=":J1_0_0" dir="s" state="M"/>
    <connection from="E2" to="L" fromLane="0" toLane="0" via=":J3_0_0" dir="s" state="M"/>
    <connection from="E2" to="L" fromLane="1" toLane="1" via=":J3_0_1" dir="s" state="M"/>
    <connection from="E6" to="goalR" fromLane="0" toLane="0" via=":J7_1_0" dir="l" state="m"/>
    <connection from="E8" to="E9" fromLane="0" toLane="0" via=":J9_0_0" dir="l" state="M"/>
    <connection from="E9" to="goalR" fromLane="0" toLane="0" via=":J7_0_0" dir="r" state="M"/>
    <connection from="L" to="E6" fromLane="0" toLane="0" via=":J5_0_0" dir="r" state="M"/>
    <connection from="L" to="goalL" fromLane="1" toLane="0" via=":J5_1_0" dir="s" state="M"/>
    <connection from="startL0" to="E2" fromLane="0" toLane="1" via=":J1_1_0" dir="s" state="M"/>
    <connection from="startL1" to="L" fromLane="0" toLane="1" via=":J3_2_0" dir="l" state="m"/>
    <connection from="startR" to="E8" fromLane="0" toLane="0" via=":J2_0_0" dir="r" state="M"/>
    <connection from="startR" to="E11" fromLane="0" toLane="0" via=":J2_1_0" dir="s" state="M"/>

    <connection from=":J1_0" to="E2" fromLane="0" toLane="0" dir="s" state="M"/>
    <connection from=":J1_1" to="E2" fromLane="0" toLane="1" dir="s" state="M"/>
    <connection from=":J2_0" to="E8" fromLane="0" toLane="0" dir="r" state="M"/>
    <connection from=":J2_1" to="E11" fromLane="0" toLane="0" dir="s" state="M"/>
    <connection from=":J3_0" to="L" fromLane="0" toLane="0" dir="s" state="M"/>
    <connection from=":J3_0" to="L" fromLane="1" toLane="1" dir="s" state="M"/>
    <connection from=":J3_2" to="L" fromLane="0" toLane="1" dir="l" state="M"/>
    <connection from=":J5_0" to="E6" fromLane="0" toLane="0" dir="r" state="M"/>
    <connection from=":J5_1" to="goalL" fromLane="0" toLane="0" dir="s" state="M"/>
    <connection from=":J7_0" to="goalR" fromLane="0" toLane="0" dir="r" state="M"/>
    <connection from=":J7_1" to="goalR" fromLane="0" toLane="0" via=":J7_2_0" dir="l" state="m"/>
    <connection from=":J7_2" to="goalR" fromLane="0" toLane="0" dir="l" state="M"/>
    <connection from=":J9_0" to="E9" fromLane="0" toLane="0" dir="l" state="M"/>

</net>
