<?xml version="1.0" encoding="UTF-8"?>

<!-- generated on 2021-11-23 17:24:01 by Eclipse SUMO netedit Version 1.9.2
<configuration xmlns:xsi="http://www.w3.org/2001/XMLSchema-instance" xsi:noNamespaceSchemaLocation="http://sumo.dlr.de/xsd/netconvertConfiguration.xsd">

    <input>
        <sumo-net-file value="/Users/davidneiman/Documents/GitHub.nosync/traffic-routing/shortlong2_16782/tictactoe.net.xml"/>
    </input>

    <output>
        <output-file value="/Users/davidneiman/Documents/GitHub.nosync/traffic-routing/shortlong2_16782/tictactoe.net.xml"/>
    </output>

    <processing>
        <geometry.min-radius.fix.railways value="false"/>
        <geometry.max-grade.fix value="false"/>
        <offset.disable-normalization value="true"/>
        <lefthand value="false"/>
    </processing>

    <junctions>
        <no-turnarounds value="true"/>
        <junctions.corner-detail value="5"/>
        <junctions.limit-turn-speed value="5.5"/>
        <rectangular-lane-cut value="false"/>
    </junctions>

    <pedestrian>
        <walkingareas value="false"/>
    </pedestrian>

    <report>
        <aggregate-warnings value="5"/>
    </report>

</configuration>
-->

<net version="1.9" junctionCornerDetail="5" limitTurnSpeed="5.50" xmlns:xsi="http://www.w3.org/2001/XMLSchema-instance" xsi:noNamespaceSchemaLocation="http://sumo.dlr.de/xsd/net_file.xsd">

    <location netOffset="0.00,0.00" convBoundary="-200.00,-200.00,400.00,400.00" origBoundary="-10000000000.00,-10000000000.00,10000000000.00,10000000000.00" projParameter="!"/>

    <edge id=":gneJ1_0" function="internal">
        <lane id=":gneJ1_0_0" index="0" speed="6.51" length="9.03" shape="198.40,7.20 198.05,4.75 197.00,3.00 195.25,1.95 192.80,1.60"/>
    </edge>
    <edge id=":gneJ1_1" function="internal">
        <lane id=":gneJ1_1_0" index="0" speed="13.89" length="14.40" shape="198.40,7.20 198.40,-7.20"/>
    </edge>
    <edge id=":gneJ1_2" function="internal">
        <lane id=":gneJ1_2_0" index="0" speed="8.00" length="5.93" shape="198.40,7.20 198.95,3.35 200.00,1.60"/>
    </edge>
    <edge id=":gneJ1_12" function="internal">
        <lane id=":gneJ1_12_0" index="0" speed="8.00" length="8.26" shape="200.00,1.60 200.60,0.60 203.35,-1.05 207.20,-1.60"/>
    </edge>
    <edge id=":gneJ1_3" function="internal">
        <lane id=":gneJ1_3_0" index="0" speed="6.51" length="9.03" shape="207.20,1.60 204.75,1.95 203.00,3.00 201.95,4.75 201.60,7.20"/>
    </edge>
    <edge id=":gneJ1_4" function="internal">
        <lane id=":gneJ1_4_0" index="0" speed="13.89" length="14.40" shape="207.20,1.60 192.80,1.60"/>
    </edge>
    <edge id=":gneJ1_5" function="internal">
        <lane id=":gneJ1_5_0" index="0" speed="8.00" length="5.93" shape="207.20,1.60 203.35,1.05 201.60,0.00"/>
    </edge>
    <edge id=":gneJ1_13" function="internal">
        <lane id=":gneJ1_13_0" index="0" speed="8.00" length="8.26" shape="201.60,0.00 200.60,-0.60 198.95,-3.35 198.40,-7.20"/>
    </edge>
    <edge id=":gneJ1_6" function="internal">
        <lane id=":gneJ1_6_0" index="0" speed="6.51" length="9.03" shape="201.60,-7.20 201.95,-4.75 203.00,-3.00 204.75,-1.95 207.20,-1.60"/>
    </edge>
    <edge id=":gneJ1_7" function="internal">
        <lane id=":gneJ1_7_0" index="0" speed="13.89" length="14.40" shape="201.60,-7.20 201.60,7.20"/>
    </edge>
    <edge id=":gneJ1_8" function="internal">
        <lane id=":gneJ1_8_0" index="0" speed="8.00" length="5.93" shape="201.60,-7.20 201.05,-3.35 200.00,-1.60"/>
    </edge>
    <edge id=":gneJ1_14" function="internal">
        <lane id=":gneJ1_14_0" index="0" speed="8.00" length="8.26" shape="200.00,-1.60 199.40,-0.60 196.65,1.05 192.80,1.60"/>
    </edge>
    <edge id=":gneJ1_9" function="internal">
        <lane id=":gneJ1_9_0" index="0" speed="6.51" length="9.03" shape="192.80,-1.60 195.25,-1.95 197.00,-3.00 198.05,-4.75 198.40,-7.20"/>
    </edge>
    <edge id=":gneJ1_10" function="internal">
        <lane id=":gneJ1_10_0" index="0" speed="13.89" length="14.40" shape="192.80,-1.60 207.20,-1.60"/>
    </edge>
    <edge id=":gneJ1_11" function="internal">
        <lane id=":gneJ1_11_0" index="0" speed="8.00" length="5.93" shape="192.80,-1.60 196.65,-1.05 198.40,-0.00"/>
    </edge>
    <edge id=":gneJ1_15" function="internal">
        <lane id=":gneJ1_15_0" index="0" speed="8.00" length="8.26" shape="198.40,-0.00 199.40,0.60 201.05,3.35 201.60,7.20"/>
    </edge>
    <edge id=":gneJ2_0" function="internal">
        <lane id=":gneJ2_0_0" index="0" speed="6.51" length="9.03" shape="198.40,207.20 198.05,204.75 197.00,203.00 195.25,201.95 192.80,201.60"/>
    </edge>
    <edge id=":gneJ2_1" function="internal">
        <lane id=":gneJ2_1_0" index="0" speed="13.89" length="14.40" shape="198.40,207.20 198.40,192.80"/>
    </edge>
    <edge id=":gneJ2_2" function="internal">
        <lane id=":gneJ2_2_0" index="0" speed="8.00" length="5.93" shape="198.40,207.20 198.95,203.35 200.00,201.60"/>
    </edge>
    <edge id=":gneJ2_12" function="internal">
        <lane id=":gneJ2_12_0" index="0" speed="8.00" length="8.26" shape="200.00,201.60 200.60,200.60 203.35,198.95 207.20,198.40"/>
    </edge>
    <edge id=":gneJ2_3" function="internal">
        <lane id=":gneJ2_3_0" index="0" speed="6.51" length="9.03" shape="207.20,201.60 204.75,201.95 203.00,203.00 201.95,204.75 201.60,207.20"/>
    </edge>
    <edge id=":gneJ2_4" function="internal">
        <lane id=":gneJ2_4_0" index="0" speed="13.89" length="14.40" shape="207.20,201.60 192.80,201.60"/>
    </edge>
    <edge id=":gneJ2_5" function="internal">
        <lane id=":gneJ2_5_0" index="0" speed="8.00" length="5.93" shape="207.20,201.60 203.35,201.05 201.60,200.00"/>
    </edge>
    <edge id=":gneJ2_13" function="internal">
        <lane id=":gneJ2_13_0" index="0" speed="8.00" length="8.26" shape="201.60,200.00 200.60,199.40 198.95,196.65 198.40,192.80"/>
    </edge>
    <edge id=":gneJ2_6" function="internal">
        <lane id=":gneJ2_6_0" index="0" speed="6.51" length="9.03" shape="201.60,192.80 201.95,195.25 203.00,197.00 204.75,198.05 207.20,198.40"/>
    </edge>
    <edge id=":gneJ2_7" function="internal">
        <lane id=":gneJ2_7_0" index="0" speed="13.89" length="14.40" shape="201.60,192.80 201.60,207.20"/>
    </edge>
    <edge id=":gneJ2_8" function="internal">
        <lane id=":gneJ2_8_0" index="0" speed="8.00" length="5.93" shape="201.60,192.80 201.05,196.65 200.00,198.40"/>
    </edge>
    <edge id=":gneJ2_14" function="internal">
        <lane id=":gneJ2_14_0" index="0" speed="8.00" length="8.26" shape="200.00,198.40 199.40,199.40 196.65,201.05 192.80,201.60"/>
    </edge>
    <edge id=":gneJ2_9" function="internal">
        <lane id=":gneJ2_9_0" index="0" speed="6.51" length="9.03" shape="192.80,198.40 195.25,198.05 197.00,197.00 198.05,195.25 198.40,192.80"/>
    </edge>
    <edge id=":gneJ2_10" function="internal">
        <lane id=":gneJ2_10_0" index="0" speed="13.89" length="14.40" shape="192.80,198.40 207.20,198.40"/>
    </edge>
    <edge id=":gneJ2_11" function="internal">
        <lane id=":gneJ2_11_0" index="0" speed="8.00" length="5.93" shape="192.80,198.40 196.65,198.95 198.40,200.00"/>
    </edge>
    <edge id=":gneJ2_15" function="internal">
        <lane id=":gneJ2_15_0" index="0" speed="8.00" length="8.26" shape="198.40,200.00 199.40,200.60 201.05,203.35 201.60,207.20"/>
    </edge>
    <edge id=":gneJ3_0" function="internal">
        <lane id=":gneJ3_0_0" index="0" speed="6.51" length="9.03" shape="-1.60,207.20 -1.95,204.75 -3.00,203.00 -4.75,201.95 -7.20,201.60"/>
    </edge>
    <edge id=":gneJ3_1" function="internal">
        <lane id=":gneJ3_1_0" index="0" speed="13.89" length="14.40" shape="-1.60,207.20 -1.60,192.80"/>
    </edge>
    <edge id=":gneJ3_2" function="internal">
        <lane id=":gneJ3_2_0" index="0" speed="8.00" length="5.93" shape="-1.60,207.20 -1.05,203.35 -0.00,201.60"/>
    </edge>
    <edge id=":gneJ3_12" function="internal">
        <lane id=":gneJ3_12_0" index="0" speed="8.00" length="8.26" shape="-0.00,201.60 0.60,200.60 3.35,198.95 7.20,198.40"/>
    </edge>
    <edge id=":gneJ3_3" function="internal">
        <lane id=":gneJ3_3_0" index="0" speed="6.51" length="9.03" shape="7.20,201.60 4.75,201.95 3.00,203.00 1.95,204.75 1.60,207.20"/>
    </edge>
    <edge id=":gneJ3_4" function="internal">
        <lane id=":gneJ3_4_0" index="0" speed="13.89" length="14.40" shape="7.20,201.60 -7.20,201.60"/>
    </edge>
    <edge id=":gneJ3_5" function="internal">
        <lane id=":gneJ3_5_0" index="0" speed="8.00" length="5.93" shape="7.20,201.60 3.35,201.05 1.60,200.00"/>
    </edge>
    <edge id=":gneJ3_13" function="internal">
        <lane id=":gneJ3_13_0" index="0" speed="8.00" length="8.26" shape="1.60,200.00 0.60,199.40 -1.05,196.65 -1.60,192.80"/>
    </edge>
    <edge id=":gneJ3_6" function="internal">
        <lane id=":gneJ3_6_0" index="0" speed="6.51" length="9.03" shape="1.60,192.80 1.95,195.25 3.00,197.00 4.75,198.05 7.20,198.40"/>
    </edge>
    <edge id=":gneJ3_7" function="internal">
        <lane id=":gneJ3_7_0" index="0" speed="13.89" length="14.40" shape="1.60,192.80 1.60,207.20"/>
    </edge>
    <edge id=":gneJ3_8" function="internal">
        <lane id=":gneJ3_8_0" index="0" speed="8.00" length="5.93" shape="1.60,192.80 1.05,196.65 0.00,198.40"/>
    </edge>
    <edge id=":gneJ3_14" function="internal">
        <lane id=":gneJ3_14_0" index="0" speed="8.00" length="8.26" shape="0.00,198.40 -0.60,199.40 -3.35,201.05 -7.20,201.60"/>
    </edge>
    <edge id=":gneJ3_9" function="internal">
        <lane id=":gneJ3_9_0" index="0" speed="6.51" length="9.03" shape="-7.20,198.40 -4.75,198.05 -3.00,197.00 -1.95,195.25 -1.60,192.80"/>
    </edge>
    <edge id=":gneJ3_10" function="internal">
        <lane id=":gneJ3_10_0" index="0" speed="13.89" length="14.40" shape="-7.20,198.40 7.20,198.40"/>
    </edge>
    <edge id=":gneJ3_11" function="internal">
        <lane id=":gneJ3_11_0" index="0" speed="8.00" length="5.93" shape="-7.20,198.40 -3.35,198.95 -1.60,200.00"/>
    </edge>
    <edge id=":gneJ3_15" function="internal">
        <lane id=":gneJ3_15_0" index="0" speed="8.00" length="8.26" shape="-1.60,200.00 -0.60,200.60 1.05,203.35 1.60,207.20"/>
    </edge>
    <edge id=":gneJ4_0" function="internal">
        <lane id=":gneJ4_0_0" index="0" speed="6.51" length="9.03" shape="-1.60,7.20 -1.95,4.75 -3.00,3.00 -4.75,1.95 -7.20,1.60"/>
    </edge>
    <edge id=":gneJ4_1" function="internal">
        <lane id=":gneJ4_1_0" index="0" speed="13.89" length="14.40" shape="-1.60,7.20 -1.60,-7.20"/>
    </edge>
    <edge id=":gneJ4_2" function="internal">
        <lane id=":gneJ4_2_0" index="0" speed="8.00" length="5.93" shape="-1.60,7.20 -1.05,3.35 0.00,1.60"/>
    </edge>
    <edge id=":gneJ4_12" function="internal">
        <lane id=":gneJ4_12_0" index="0" speed="8.00" length="8.26" shape="0.00,1.60 0.60,0.60 3.35,-1.05 7.20,-1.60"/>
    </edge>
    <edge id=":gneJ4_3" function="internal">
        <lane id=":gneJ4_3_0" index="0" speed="6.51" length="9.03" shape="7.20,1.60 4.75,1.95 3.00,3.00 1.95,4.75 1.60,7.20"/>
    </edge>
    <edge id=":gneJ4_4" function="internal">
        <lane id=":gneJ4_4_0" index="0" speed="13.89" length="14.40" shape="7.20,1.60 -7.20,1.60"/>
    </edge>
    <edge id=":gneJ4_5" function="internal">
        <lane id=":gneJ4_5_0" index="0" speed="8.00" length="5.93" shape="7.20,1.60 3.35,1.05 1.60,0.00"/>
    </edge>
    <edge id=":gneJ4_13" function="internal">
        <lane id=":gneJ4_13_0" index="0" speed="8.00" length="8.26" shape="1.60,0.00 0.60,-0.60 -1.05,-3.35 -1.60,-7.20"/>
    </edge>
    <edge id=":gneJ4_6" function="internal">
        <lane id=":gneJ4_6_0" index="0" speed="6.51" length="9.03" shape="1.60,-7.20 1.95,-4.75 3.00,-3.00 4.75,-1.95 7.20,-1.60"/>
    </edge>
    <edge id=":gneJ4_7" function="internal">
        <lane id=":gneJ4_7_0" index="0" speed="13.89" length="14.40" shape="1.60,-7.20 1.60,7.20"/>
    </edge>
    <edge id=":gneJ4_8" function="internal">
        <lane id=":gneJ4_8_0" index="0" speed="8.00" length="5.93" shape="1.60,-7.20 1.05,-3.35 0.00,-1.60"/>
    </edge>
    <edge id=":gneJ4_14" function="internal">
        <lane id=":gneJ4_14_0" index="0" speed="8.00" length="8.26" shape="0.00,-1.60 -0.60,-0.60 -3.35,1.05 -7.20,1.60"/>
    </edge>
    <edge id=":gneJ4_9" function="internal">
        <lane id=":gneJ4_9_0" index="0" speed="6.51" length="9.03" shape="-7.20,-1.60 -4.75,-1.95 -3.00,-3.00 -1.95,-4.75 -1.60,-7.20"/>
    </edge>
    <edge id=":gneJ4_10" function="internal">
        <lane id=":gneJ4_10_0" index="0" speed="13.89" length="14.40" shape="-7.20,-1.60 7.20,-1.60"/>
    </edge>
    <edge id=":gneJ4_11" function="internal">
        <lane id=":gneJ4_11_0" index="0" speed="8.00" length="5.93" shape="-7.20,-1.60 -3.35,-1.05 -1.60,0.00"/>
    </edge>
    <edge id=":gneJ4_15" function="internal">
        <lane id=":gneJ4_15_0" index="0" speed="8.00" length="8.26" shape="-1.60,0.00 -0.60,0.60 1.05,3.35 1.60,7.20"/>
    </edge>

    <edge id="gneE1" from="gneJ1" to="gneJ2" priority="-1">
        <lane id="gneE1_0" index="0" speed="13.89" length="185.60" shape="201.60,7.20 201.60,192.80"/>
    </edge>
    <edge id="gneE16" from="gneJ2" to="gneJ1" priority="-1">
        <lane id="gneE16_0" index="0" speed="13.89" length="185.60" shape="198.40,192.80 198.40,7.20"/>
    </edge>
    <edge id="gneE2" from="gneJ2" to="gneJ3" priority="-1">
        <lane id="gneE2_0" index="0" speed="13.89" length="185.60" shape="192.80,201.60 7.20,201.60"/>
    </edge>
    <edge id="gneE3" from="gneJ3" to="gneJ4" priority="-1">
        <lane id="gneE3_0" index="0" speed="13.89" length="185.60" shape="-1.60,192.80 -1.60,7.20"/>
    </edge>
    <edge id="gneE4" from="gneJ4" to="gneJ1" priority="-1">
        <lane id="gneE4_0" index="0" speed="13.89" length="185.60" shape="7.20,-1.60 192.80,-1.60"/>
    </edge>
    <edge id="gneE5" from="gneJ1" to="gneJ4" priority="-1">
        <lane id="gneE5_0" index="0" speed="13.89" length="185.60" shape="192.80,1.60 7.20,1.60"/>
    </edge>
    <edge id="gneE6" from="gneJ4" to="gneJ3" priority="-1">
        <lane id="gneE6_0" index="0" speed="13.89" length="185.60" shape="1.60,7.20 1.60,192.80"/>
    </edge>
    <edge id="gneE7" from="gneJ3" to="gneJ2" priority="-1">
        <lane id="gneE7_0" index="0" speed="13.89" length="185.60" shape="7.20,198.40 192.80,198.40"/>
    </edge>
    <edge id="in1" from="gneJ7" to="gneJ3" priority="-1">
        <lane id="in1_0" index="0" speed="13.89" length="192.80" shape="-1.60,400.00 -1.60,207.20"/>
    </edge>
    <edge id="in2" from="gneJ10" to="gneJ2" priority="-1">
        <lane id="in2_0" index="0" speed="13.89" length="192.80" shape="198.40,400.00 198.40,207.20"/>
    </edge>
    <edge id="in3" from="gneJ11" to="gneJ3" priority="-1">
        <lane id="in3_0" index="0" speed="13.89" length="192.80" shape="-200.00,198.40 -7.20,198.40"/>
    </edge>
    <edge id="in4" from="gneJ6" to="gneJ2" priority="-1">
        <lane id="in4_0" index="0" speed="13.89" length="192.80" shape="400.00,201.60 207.20,201.60"/>
    </edge>
    <edge id="in5" from="gneJ8" to="gneJ4" priority="-1">
        <lane id="in5_0" index="0" speed="13.89" length="192.80" shape="-200.00,-1.60 -7.20,-1.60"/>
    </edge>
    <edge id="in6" from="gneJ9" to="gneJ1" priority="-1">
        <lane id="in6_0" index="0" speed="13.89" length="192.80" shape="400.00,1.60 207.20,1.60"/>
    </edge>
    <edge id="in7" from="gneJ12" to="gneJ4" priority="-1">
        <lane id="in7_0" index="0" speed="13.89" length="192.80" shape="1.60,-200.00 1.60,-7.20"/>
    </edge>
    <edge id="in8" from="gneJ0" to="gneJ1" priority="-1">
        <lane id="in8_0" index="0" speed="13.89" length="192.80" shape="201.60,-200.00 201.60,-7.20"/>
    </edge>
    <edge id="out1" from="gneJ3" to="gneJ7" priority="-1">
        <lane id="out1_0" index="0" speed="13.89" length="192.80" shape="1.60,207.20 1.60,400.00"/>
    </edge>
    <edge id="out2" from="gneJ2" to="gneJ10" priority="-1">
        <lane id="out2_0" index="0" speed="13.89" length="192.80" shape="201.60,207.20 201.60,400.00"/>
    </edge>
    <edge id="out3" from="gneJ3" to="gneJ11" priority="-1">
        <lane id="out3_0" index="0" speed="13.89" length="192.80" shape="-7.20,201.60 -200.00,201.60"/>
    </edge>
    <edge id="out4" from="gneJ2" to="gneJ6" priority="-1">
        <lane id="out4_0" index="0" speed="13.89" length="192.80" shape="207.20,198.40 400.00,198.40"/>
    </edge>
    <edge id="out5" from="gneJ4" to="gneJ8" priority="-1">
        <lane id="out5_0" index="0" speed="13.89" length="192.80" shape="-7.20,1.60 -200.00,1.60"/>
    </edge>
    <edge id="out6" from="gneJ1" to="gneJ9" priority="-1">
        <lane id="out6_0" index="0" speed="13.89" length="192.80" shape="207.20,-1.60 400.00,-1.60"/>
    </edge>
    <edge id="out7" from="gneJ4" to="gneJ12" priority="-1">
        <lane id="out7_0" index="0" speed="13.89" length="192.80" shape="-1.60,-7.20 -1.60,-200.00"/>
    </edge>
    <edge id="out8" from="gneJ1" to="gneJ0" priority="-1">
        <lane id="out8_0" index="0" speed="13.89" length="192.80" shape="198.40,-7.20 198.40,-200.00"/>
    </edge>

    <tlLogic id="gneJ1" type="static" programID="0" offset="0">
        <phase duration="42" state="GGgsrrGGgsrr"/>
        <phase duration="3"  state="yyysrryyysrr"/>
        <phase duration="42" state="srrGGgsrrGGg"/>
        <phase duration="3"  state="srryyysrryyy"/>
    </tlLogic>
    <tlLogic id="gneJ2" type="static" programID="0" offset="0">
        <phase duration="42" state="GGgsrrGGgsrr"/>
        <phase duration="3"  state="yyysrryyysrr"/>
        <phase duration="42" state="srrGGgsrrGGg"/>
        <phase duration="3"  state="srryyysrryyy"/>
    </tlLogic>
    <tlLogic id="gneJ3" type="static" programID="0" offset="0">
        <phase duration="42" state="GGgsrrGGgsrr"/>
        <phase duration="3"  state="yyysrryyysrr"/>
        <phase duration="42" state="srrGGgsrrGGg"/>
        <phase duration="3"  state="srryyysrryyy"/>
    </tlLogic>
    <tlLogic id="gneJ4" type="static" programID="0" offset="0">
        <phase duration="42" state="GGgsrrGGgsrr"/>
        <phase duration="3"  state="yyysrryyysrr"/>
        <phase duration="42" state="srrGGgsrrGGg"/>
        <phase duration="3"  state="srryyysrryyy"/>
    </tlLogic>

    <junction id="gneJ0" type="dead_end" x="200.00" y="-200.00" incLanes="out8_0" intLanes="" shape="200.00,-200.00 196.80,-200.00 200.00,-200.00"/>
    <junction id="gneJ1" type="traffic_light_right_on_red" x="200.00" y="0.00" incLanes="gneE16_0 in6_0 in8_0 gneE4_0" intLanes=":gneJ1_0_0 :gneJ1_1_0 :gneJ1_12_0 :gneJ1_3_0 :gneJ1_4_0 :gneJ1_13_0 :gneJ1_6_0 :gneJ1_7_0 :gneJ1_14_0 :gneJ1_9_0 :gneJ1_10_0 :gneJ1_15_0" shape="196.80,7.20 203.20,7.20 203.64,4.98 204.20,4.20 204.98,3.64 205.98,3.31 207.20,3.20 207.20,-3.20 204.98,-3.64 204.20,-4.20 203.64,-4.98 203.31,-5.98 203.20,-7.20 196.80,-7.20 196.36,-4.98 195.80,-4.20 195.02,-3.64 194.02,-3.31 192.80,-3.20 192.80,3.20 195.02,3.64 195.80,4.20 196.36,4.98 196.69,5.98">
        <request index="0"  response="000000010000" foes="000100010000" cont="0"/>
        <request index="1"  response="100000100000" foes="111100110000" cont="0"/>
        <request index="2"  response="100011100000" foes="110011110000" cont="1"/>
        <request index="3"  response="000010000000" foes="100010000000" cont="0"/>
        <request index="4"  response="000110000111" foes="100110000111" cont="0"/>
        <request index="5"  response="011110000110" foes="011110000110" cont="1"/>
        <request index="6"  response="010000000000" foes="010000000100" cont="0"/>
        <request index="7"  response="100000100000" foes="110000111100" cont="0"/>
        <request index="8"  response="100000100011" foes="110000110011" cont="1"/>
        <request index="9"  response="000000000010" foes="000000100010" cont="0"/>
        <request index="10" response="000111000110" foes="000111100110" cont="0"/>
        <request index="11" response="000110011110" foes="000110011110" cont="1"/>
    </junction>
    <junction id="gneJ10" type="dead_end" x="200.00" y="400.00" incLanes="out2_0" intLanes="" shape="200.00,400.00 203.20,400.00 200.00,400.00"/>
    <junction id="gneJ11" type="dead_end" x="-200.00" y="200.00" incLanes="out3_0" intLanes="" shape="-200.00,200.00 -200.00,203.20 -200.00,200.00"/>
    <junction id="gneJ12" type="dead_end" x="0.00" y="-200.00" incLanes="out7_0" intLanes="" shape="0.00,-200.00 -3.20,-200.00 0.00,-200.00"/>
    <junction id="gneJ2" type="traffic_light_right_on_red" x="200.00" y="200.00" incLanes="in2_0 in4_0 gneE1_0 gneE7_0" intLanes=":gneJ2_0_0 :gneJ2_1_0 :gneJ2_12_0 :gneJ2_3_0 :gneJ2_4_0 :gneJ2_13_0 :gneJ2_6_0 :gneJ2_7_0 :gneJ2_14_0 :gneJ2_9_0 :gneJ2_10_0 :gneJ2_15_0" shape="196.80,207.20 203.20,207.20 203.64,204.98 204.20,204.20 204.98,203.64 205.98,203.31 207.20,203.20 207.20,196.80 204.98,196.36 204.20,195.80 203.64,195.02 203.31,194.02 203.20,192.80 196.80,192.80 196.36,195.02 195.80,195.80 195.02,196.36 194.02,196.69 192.80,196.80 192.80,203.20 195.02,203.64 195.80,204.20 196.36,204.98 196.69,205.98">
        <request index="0"  response="000000010000" foes="000100010000" cont="0"/>
        <request index="1"  response="100000100000" foes="111100110000" cont="0"/>
        <request index="2"  response="100011100000" foes="110011110000" cont="1"/>
        <request index="3"  response="000010000000" foes="100010000000" cont="0"/>
        <request index="4"  response="000110000111" foes="100110000111" cont="0"/>
        <request index="5"  response="011110000110" foes="011110000110" cont="1"/>
        <request index="6"  response="010000000000" foes="010000000100" cont="0"/>
        <request index="7"  response="100000100000" foes="110000111100" cont="0"/>
        <request index="8"  response="100000100011" foes="110000110011" cont="1"/>
        <request index="9"  response="000000000010" foes="000000100010" cont="0"/>
        <request index="10" response="000111000110" foes="000111100110" cont="0"/>
        <request index="11" response="000110011110" foes="000110011110" cont="1"/>
    </junction>
    <junction id="gneJ3" type="traffic_light_right_on_red" x="0.00" y="200.00" incLanes="in1_0 gneE2_0 gneE6_0 in3_0" intLanes=":gneJ3_0_0 :gneJ3_1_0 :gneJ3_12_0 :gneJ3_3_0 :gneJ3_4_0 :gneJ3_13_0 :gneJ3_6_0 :gneJ3_7_0 :gneJ3_14_0 :gneJ3_9_0 :gneJ3_10_0 :gneJ3_15_0" shape="-3.20,207.20 3.20,207.20 3.64,204.98 4.20,204.20 4.98,203.64 5.98,203.31 7.20,203.20 7.20,196.80 4.98,196.36 4.20,195.80 3.64,195.02 3.31,194.02 3.20,192.80 -3.20,192.80 -3.64,195.02 -4.20,195.80 -4.98,196.36 -5.98,196.69 -7.20,196.80 -7.20,203.20 -4.98,203.64 -4.20,204.20 -3.64,204.98 -3.31,205.98">
        <request index="0"  response="000000010000" foes="000100010000" cont="0"/>
        <request index="1"  response="100000100000" foes="111100110000" cont="0"/>
        <request index="2"  response="100011100000" foes="110011110000" cont="1"/>
        <request index="3"  response="000010000000" foes="100010000000" cont="0"/>
        <request index="4"  response="000110000111" foes="100110000111" cont="0"/>
        <request index="5"  response="011110000110" foes="011110000110" cont="1"/>
        <request index="6"  response="010000000000" foes="010000000100" cont="0"/>
        <request index="7"  response="100000100000" foes="110000111100" cont="0"/>
        <request index="8"  response="100000100011" foes="110000110011" cont="1"/>
        <request index="9"  response="000000000010" foes="000000100010" cont="0"/>
        <request index="10" response="000111000110" foes="000111100110" cont="0"/>
        <request index="11" response="000110011110" foes="000110011110" cont="1"/>
    </junction>
    <junction id="gneJ4" type="traffic_light_right_on_red" x="0.00" y="0.00" incLanes="gneE3_0 gneE5_0 in7_0 in5_0" intLanes=":gneJ4_0_0 :gneJ4_1_0 :gneJ4_12_0 :gneJ4_3_0 :gneJ4_4_0 :gneJ4_13_0 :gneJ4_6_0 :gneJ4_7_0 :gneJ4_14_0 :gneJ4_9_0 :gneJ4_10_0 :gneJ4_15_0" shape="-3.20,7.20 3.20,7.20 3.64,4.98 4.20,4.20 4.98,3.64 5.98,3.31 7.20,3.20 7.20,-3.20 4.98,-3.64 4.20,-4.20 3.64,-4.98 3.31,-5.98 3.20,-7.20 -3.20,-7.20 -3.64,-4.98 -4.20,-4.20 -4.98,-3.64 -5.98,-3.31 -7.20,-3.20 -7.20,3.20 -4.98,3.64 -4.20,4.20 -3.64,4.98 -3.31,5.98">
        <request index="0"  response="000000010000" foes="000100010000" cont="0"/>
        <request index="1"  response="100000100000" foes="111100110000" cont="0"/>
        <request index="2"  response="100011100000" foes="110011110000" cont="1"/>
        <request index="3"  response="000010000000" foes="100010000000" cont="0"/>
        <request index="4"  response="000110000111" foes="100110000111" cont="0"/>
        <request index="5"  response="011110000110" foes="011110000110" cont="1"/>
        <request index="6"  response="010000000000" foes="010000000100" cont="0"/>
        <request index="7"  response="100000100000" foes="110000111100" cont="0"/>
        <request index="8"  response="100000100011" foes="110000110011" cont="1"/>
        <request index="9"  response="000000000010" foes="000000100010" cont="0"/>
        <request index="10" response="000111000110" foes="000111100110" cont="0"/>
        <request index="11" response="000110011110" foes="000110011110" cont="1"/>
    </junction>
    <junction id="gneJ6" type="dead_end" x="400.00" y="200.00" incLanes="out4_0" intLanes="" shape="400.00,200.00 400.00,196.80 400.00,200.00"/>
    <junction id="gneJ7" type="dead_end" x="0.00" y="400.00" incLanes="out1_0" intLanes="" shape="0.00,400.00 3.20,400.00 0.00,400.00"/>
    <junction id="gneJ8" type="dead_end" x="-200.00" y="0.00" incLanes="out5_0" intLanes="" shape="-200.00,0.00 -200.00,3.20 -200.00,0.00"/>
    <junction id="gneJ9" type="dead_end" x="400.00" y="0.00" incLanes="out6_0" intLanes="" shape="400.00,0.00 400.00,-3.20 400.00,0.00"/>

    <junction id=":gneJ1_12_0" type="internal" x="200.00" y="1.60" incLanes=":gneJ1_2_0 in8_0" intLanes=":gneJ1_4_0 :gneJ1_5_0 :gneJ1_6_0 :gneJ1_7_0 :gneJ1_10_0 :gneJ1_11_0"/>
    <junction id=":gneJ1_13_0" type="internal" x="201.60" y="0.00" incLanes=":gneJ1_5_0 gneE4_0" intLanes=":gneJ1_1_0 :gneJ1_2_0 :gneJ1_7_0 :gneJ1_8_0 :gneJ1_9_0 :gneJ1_10_0"/>
    <junction id=":gneJ1_14_0" type="internal" x="200.00" y="-1.60" incLanes=":gneJ1_8_0 gneE16_0" intLanes=":gneJ1_0_0 :gneJ1_1_0 :gneJ1_4_0 :gneJ1_5_0 :gneJ1_10_0 :gneJ1_11_0"/>
    <junction id=":gneJ1_15_0" type="internal" x="198.40" y="-0.00" incLanes=":gneJ1_11_0 in6_0" intLanes=":gneJ1_1_0 :gneJ1_2_0 :gneJ1_3_0 :gneJ1_4_0 :gneJ1_7_0 :gneJ1_8_0"/>
    <junction id=":gneJ2_12_0" type="internal" x="200.00" y="201.60" incLanes=":gneJ2_2_0 gneE1_0" intLanes=":gneJ2_4_0 :gneJ2_5_0 :gneJ2_6_0 :gneJ2_7_0 :gneJ2_10_0 :gneJ2_11_0"/>
    <junction id=":gneJ2_13_0" type="internal" x="201.60" y="200.00" incLanes=":gneJ2_5_0 gneE7_0" intLanes=":gneJ2_1_0 :gneJ2_2_0 :gneJ2_7_0 :gneJ2_8_0 :gneJ2_9_0 :gneJ2_10_0"/>
    <junction id=":gneJ2_14_0" type="internal" x="200.00" y="198.40" incLanes=":gneJ2_8_0 in2_0" intLanes=":gneJ2_0_0 :gneJ2_1_0 :gneJ2_4_0 :gneJ2_5_0 :gneJ2_10_0 :gneJ2_11_0"/>
    <junction id=":gneJ2_15_0" type="internal" x="198.40" y="200.00" incLanes=":gneJ2_11_0 in4_0" intLanes=":gneJ2_1_0 :gneJ2_2_0 :gneJ2_3_0 :gneJ2_4_0 :gneJ2_7_0 :gneJ2_8_0"/>
    <junction id=":gneJ3_12_0" type="internal" x="-0.00" y="201.60" incLanes=":gneJ3_2_0 gneE6_0" intLanes=":gneJ3_4_0 :gneJ3_5_0 :gneJ3_6_0 :gneJ3_7_0 :gneJ3_10_0 :gneJ3_11_0"/>
    <junction id=":gneJ3_13_0" type="internal" x="1.60" y="200.00" incLanes=":gneJ3_5_0 in3_0" intLanes=":gneJ3_1_0 :gneJ3_2_0 :gneJ3_7_0 :gneJ3_8_0 :gneJ3_9_0 :gneJ3_10_0"/>
    <junction id=":gneJ3_14_0" type="internal" x="0.00" y="198.40" incLanes=":gneJ3_8_0 in1_0" intLanes=":gneJ3_0_0 :gneJ3_1_0 :gneJ3_4_0 :gneJ3_5_0 :gneJ3_10_0 :gneJ3_11_0"/>
    <junction id=":gneJ3_15_0" type="internal" x="-1.60" y="200.00" incLanes=":gneJ3_11_0 gneE2_0" intLanes=":gneJ3_1_0 :gneJ3_2_0 :gneJ3_3_0 :gneJ3_4_0 :gneJ3_7_0 :gneJ3_8_0"/>
    <junction id=":gneJ4_12_0" type="internal" x="0.00" y="1.60" incLanes=":gneJ4_2_0 in7_0" intLanes=":gneJ4_4_0 :gneJ4_5_0 :gneJ4_6_0 :gneJ4_7_0 :gneJ4_10_0 :gneJ4_11_0"/>
    <junction id=":gneJ4_13_0" type="internal" x="1.60" y="0.00" incLanes=":gneJ4_5_0 in5_0" intLanes=":gneJ4_1_0 :gneJ4_2_0 :gneJ4_7_0 :gneJ4_8_0 :gneJ4_9_0 :gneJ4_10_0"/>
    <junction id=":gneJ4_14_0" type="internal" x="0.00" y="-1.60" incLanes=":gneJ4_8_0 gneE3_0" intLanes=":gneJ4_0_0 :gneJ4_1_0 :gneJ4_4_0 :gneJ4_5_0 :gneJ4_10_0 :gneJ4_11_0"/>
    <junction id=":gneJ4_15_0" type="internal" x="-1.60" y="0.00" incLanes=":gneJ4_11_0 gneE5_0" intLanes=":gneJ4_1_0 :gneJ4_2_0 :gneJ4_3_0 :gneJ4_4_0 :gneJ4_7_0 :gneJ4_8_0"/>

    <connection from="gneE1" to="out4" fromLane="0" toLane="0" via=":gneJ2_6_0" tl="gneJ2" linkIndex="6" dir="r" state="O"/>
    <connection from="gneE1" to="out2" fromLane="0" toLane="0" via=":gneJ2_7_0" tl="gneJ2" linkIndex="7" dir="s" state="O"/>
    <connection from="gneE1" to="gneE2" fromLane="0" toLane="0" via=":gneJ2_8_0" tl="gneJ2" linkIndex="8" dir="l" state="o"/>
    <connection from="gneE16" to="gneE5" fromLane="0" toLane="0" via=":gneJ1_0_0" tl="gneJ1" linkIndex="0" dir="r" state="O"/>
    <connection from="gneE16" to="out8" fromLane="0" toLane="0" via=":gneJ1_1_0" tl="gneJ1" linkIndex="1" dir="s" state="O"/>
    <connection from="gneE16" to="out6" fromLane="0" toLane="0" via=":gneJ1_2_0" tl="gneJ1" linkIndex="2" dir="l" state="o"/>
    <connection from="gneE2" to="out1" fromLane="0" toLane="0" via=":gneJ3_3_0" tl="gneJ3" linkIndex="3" dir="r" state="o"/>
    <connection from="gneE2" to="out3" fromLane="0" toLane="0" via=":gneJ3_4_0" tl="gneJ3" linkIndex="4" dir="s" state="o"/>
    <connection from="gneE2" to="gneE3" fromLane="0" toLane="0" via=":gneJ3_5_0" tl="gneJ3" linkIndex="5" dir="l" state="o"/>
    <connection from="gneE3" to="out5" fromLane="0" toLane="0" via=":gneJ4_0_0" tl="gneJ4" linkIndex="0" dir="r" state="O"/>