<?xml version="1.0" encoding="UTF-8"?>

<!-- generated on 2021-09-30 20:22:03 by Eclipse SUMO netedit Version 1.9.2
<configuration xmlns:xsi="http://www.w3.org/2001/XMLSchema-instance" xsi:noNamespaceSchemaLocation="http://sumo.dlr.de/xsd/netconvertConfiguration.xsd">

    <input>
        <sumo-net-file value="shortlong.net.xml"/>
    </input>

    <output>
        <output-file value="shortlong.net.xml"/>
    </output>

    <processing>
        <geometry.min-radius.fix.railways value="false"/>
        <geometry.max-grade.fix value="false"/>
        <offset.disable-normalization value="true"/>
        <lefthand value="false"/>
    </processing>

    <junctions>
        <no-turnarounds value="true"/>
        <junctions.corner-detail value="5"/>
        <junctions.limit-turn-speed value="5.5"/>
        <rectangular-lane-cut value="false"/>
    </junctions>

    <pedestrian>
        <walkingareas value="false"/>
    </pedestrian>

    <netedit>
        <route-files value="/usr/local/Cellar/sumo/shortlong2/shortlong.rou.xml"/>
    </netedit>

    <report>
        <aggregate-warnings value="5"/>
    </report>

</configuration>
-->

<routes xmlns:xsi="http://www.w3.org/2001/XMLSchema-instance" xsi:noNamespaceSchemaLocation="http://sumo.dlr.de/xsd/routes_file.xsd">
    <route edges="L LL1 LL2 goal" color="yellow" id="SLL"/>
    <route edges="startL LL1 LL2 goal" color="yellow" id="LL"/>
    <route edges="L LR C1 C2 goal" color="yellow" id="SLR"/>
    <route edges="startL LR C1 C2 goal" color="yellow" id="LR"/>
    <route edges="R RL C1 C2 goal" color="yellow" id="SRL"/>
    <route edges="startR RL C1 C2 goal" color="yellow" id="RL"/>
    <route edges="R RR1 RR2 goal" color="yellow" id="SRR"/>
    <route edges="startR RR1 RR2 goal" color="yellow" id="RR"/>
    <route edges="start L LL1 LL2 goal" color="yellow" id="SLL0"/>
    <route edges="start L LR C1 C2 goal" color="yellow" id="SLR0"/>
    <route edges="start R RL C1 C2 goal" color="yellow" id="SRL0"/>
    <route edges="start R RR1 RR2 goal" color="yellow" id="SRR0"/>

    <flow id="Sflow" from="start" to="goal" begin="0" end="10000" number="10000"/>
    <flow id="Lflow" from="startL" to="goal" begin="0" end="10000" number="1000"/>
    <flow id="Rflow" from="startR" to="goal" begin="0" end="10000" number="1000"/>
</routes>
