<?xml version="1.0" encoding="UTF-8"?>

<!-- generated on 2022-05-17 15:47:38 by Eclipse SUMO jtrrouter Version 1.12.0
<configuration xmlns:xsi="http://www.w3.org/2001/XMLSchema-instance" xsi:noNamespaceSchemaLocation="http://sumo.dlr.de/xsd/jtrrouterConfiguration.xsd">

    <input>
        <net-file value="networks/marshall/marshall.net.xml"/>
        <route-files value="networks/marshall/marshall.flows.xml"/>
        <turn-ratio-files value="networks/marshall/marshall.turns.xml"/>
    </input>

    <output>
        <output-file value="networks/marshall/marshall_jtr_44.rou.xml"/>
    </output>

    <processing>
        <no-internal-links value="false"/>
        <randomize-flows value="true"/>
        <repair value="true"/>
        <accept-all-destinations value="true"/>
    </processing>

    <defaults>
        <departlane value="best"/>
    </defaults>

    <time>
        <begin value="0"/>
        <end value="3600"/>
    </time>

    <random_number>
        <seed value="44"/>
    </random_number>

</configuration>
-->

<routes xmlns:xsi="http://www.w3.org/2001/XMLSchema-instance" xsi:noNamespaceSchemaLocation="http://sumo.dlr.de/xsd/routes_file.xsd">
    <vehicle id="fl1_st0.0.0" depart="0.52" departLane="best" color="68,242,219">
        <route edges="1 6 3 15"/>
    </vehicle>
    <vehicle id="fl47_st0.0.0" depart="1.31" departLane="best" color="68,242,219">
        <route edges="47 45 42 41 23 19 18 17 13 10 11 48"/>
    </vehicle>
    <vehicle id="fl1_st0.0.1" depart="1.77" departLane="best" color="68,242,219">
        <route edges="1 6 3 16 20 24 40 46"/>
    </vehicle>
    <vehicle id="fl21_st0.0.0" depart="2.94" departLane="best" color="68,242,219">
        <route edges="21 24 25 28 35"/>
    </vehicle>
    <vehicle id="fl47_st0.0.1" depart="4.30" departLane="best" color="68,242,219">
        <route edges="47 45 42 41 23 19 18 17 15"/>
    </vehicle>
    <vehicle id="fl47_st0.0.2" depart="4.84" departLane="best" color="68,242,219">
        <route edges="47 45 42 41 23 19 18 17 15"/>
    </vehicle>
    <vehicle id="fl14_st0.0.0" depart="4.85" departLane="best" color="68,242,219">
        <route edges="14 16 20 22"/>
    </vehicle>
    <vehicle id="fl36_st0.0.0" depart="4.97" departLane="best" color="68,242,219">
        <route edges="36 34 33"/>
    </vehicle>
    <vehicle id="fl14_st0.0.1" depart="5.00" departLane="best" color="68,242,219">
        <route edges="14 13 10 11 9"/>
    </vehicle>
    <vehicle id="fl21_st0.0.1" depart="7.12" departLane="best" color="68,242,219">
        <route edges="21 24 40 46"/>
    </vehicle>
    <vehicle id="fl47_st0.0.3" depart="8.20" departLane="best" color="68,242,219">
        <route edges="47 45 42 41 23 19 18 17 13 10 11 48"/>
    </vehicle>
    <vehicle id="fl21_st0.0.2" depart="8.21" departLane="best" color="68,242,219">
        <route edges="21 19 18 17 13 10 11 9"/>
    </vehicle>
    <vehicle id="fl43_st0.0.0" depart="9.28" departLane="best" color="68,242,219">
        <route edges="43 46"/>
    </vehicle>
    <vehicle id="fl43_st0.0.1" depart="10.87" departLane="best" color="68,242,219">
        <route edges="43 42 41 23 22"/>
    </vehicle>
    <vehicle id="fl39_st0.0.0" depart="10.90" departLane="best" color="68,242,219">
        <route edges="39 37 25 28 35"/>
    </vehicle>
    <vehicle id="fl7_st0.0.0" depart="11.49" departLane="best" color="68,242,219">
        <route edges="7 4 48"/>
    </vehicle>
    <vehicle id="fl36_st0.0.1" depart="12.19" departLane="best" color="68,242,219">
        <route edges="36 34 26 27 38"/>
    </vehicle>
    <vehicle id="fl47_st0.0.4" depart="17.35" departLane="best" color="68,242,219">
        <route edges="47 45 42 41 23 22"/>
    </vehicle>
    <vehicle id="fl8_st0.0.0" depart="18.04" departLane="best" color="68,242,219">
        <route edges="8 2 3 16 20 22"/>
    </vehicle>
    <vehicle id="fl29_st0.0.0" depart="18.31" departLane="best" color="68,242,219">
        <route edges="29 35"/>
    </vehicle>
    <vehicle id="fl47_st0.0.5" depart="20.27" departLane="best" color="68,242,219">
        <route edges="47 45 42 41 23 19 18 17 13 10 11 9"/>
    </vehicle>
    <vehicle id="fl8_st0.0.1" depart="21.02" departLane="best" color="68,242,219">
        <route edges="8 2 3 16 20 24 25 28 33"/>
    </vehicle>
    <vehicle id="fl43_st0.0.2" depart="21.09" departLane="best" color="68,242,219">
        <route edges="43 46"/>
    </vehicle>
    <vehicle id="fl8_st0.0.2" depart="21.82" departLane="best" color="68,242,219">
        <route edges="8 2 3 15"/>
    </vehicle>
    <vehicle id="fl47_st0.0.6" depart="22.10" departLane="best" color="68,242,219">
        <route edges="47 45 42 41 23 22"/>
    </vehicle>
    <vehicle id="fl14_st0.0.2" depart="23.36" departLane="best" color="68,242,219">
        <route edges="14 16 20 24 38"/>
    </vehicle>
    <vehicle id="fl47_st0.0.7" depart="23.46" departLane="best" color="68,242,219">
        <route edges="47 45 42 41 25 28 33"/>
    </vehicle>
    <vehicle id="fl39_st0.0.1" depart="24.96" departLane="best" color="68,242,219">
        <route edges="39 37 25 28 33"/>
    </vehicle>
    <vehicle id="fl47_st0.0.8" depart="25.85" departLane="best" color="68,242,219">
        <route edges="47 45 42 41 23 22"/>
    </vehicle>
    <vehicle id="fl36_st0.0.2" depart="27.75" departLane="best" color="68,242,219">
        <route edges="36 34 26 27 38"/>
    </vehicle>
    <vehicle id="fl39_st0.0.2" depart="29.39" departLane="best" color="68,242,219">
        <route edges="39 37 40 46"/>
    </vehicle>
    <vehicle id="fl1_st0.0.2" depart="30.14" departLane="best" color="68,242,219">
        <route edges="1 6 3 16 20 22"/>
    </vehicle>
    <vehicle id="fl47_st0.0.9" depart="31.19" departLane="best" color="68,242,219">
        <route edges="47 45 42 41 23 19 18 17 15"/>
    </vehicle>
    <vehicle id="fl8_st0.0.3" depart="33.30" departLane="best" color="68,242,219">
        <route edges="8 2 3 16 20 22"/>
    </vehicle>
    <vehicle id="fl21_st0.0.3" depart="33.48" departLane="best" color="68,242,219">
        <route edges="21 24 40 46"/>
    </vehicle>
    <vehicle id="fl47_st0.0.10" depart="34.15" departLane="best" color="68,242,219">
        <route edges="47 45 42 41 38"/>
    </vehicle>
    <vehicle id="fl21_st0.0.4" depart="34.48" departLane="best" color="68,242,219">
        <route edges="21 19 18 17 13 10 11 9"/>
    </vehicle>
    <vehicle id="fl21_st0.0.5" depart="34.56" departLane="best" color="68,242,219">
        <route edges="21 24 40 46"/>
    </vehicle>
    <vehicle id="fl36_st0.0.3" depart="34.96" departLane="best" color="68,242,219">
        <route edges="36 34 26 27 23 19 18 17 13 10 11 48"/>
    </vehicle>
    <vehicle id="fl43_st0.0.3" depart="35.74" departLane="best" color="68,242,219">
        <route edges="43 46"/>
    </vehicle>
    <vehicle id="fl14_st0.0.3" depart="36.09" departLane="best" color="68,242,219">
        <route edges="14 13 10 12 50"/>
    </vehicle>
    <vehicle id="fl21_st0.0.6" depart="36.15" departLane="best" color="68,242,219">
        <route edges="21 24 40 46"/>
    </vehicle>
    <vehicle id="fl14_st0.0.4" depart="36.26" departLane="best" color="68,242,219">
        <route edges="14 16 20 24 25 28 35"/>
    </vehicle>
    <vehicle id="fl21_st0.0.7" depart="36.83" departLane="best" color="68,242,219">
        <route edges="21 24 25 28 33"/>
    </vehicle>
    <vehicle id="fl1_st0.0.3" depart="37.31" departLane="best" color="68,242,219">
        <route edges="1 6 3 16 20 24 25 28 35"/>
    </vehicle>
    <vehicle id="fl1_st0.0.4" depart="38.15" departLane="best" color="68,242,219">
        <route edges="1 6 3 16 20 24 40 46"/>
    </vehicle>
    <vehicle id="fl14_st0.0.5" depart="39.34" departLane="best" color="68,242,219">
        <route edges="14 13 10 11 48"/>
    </vehicle>
    <vehicle id="fl36_st0.0.4" depart="41.30" departLane="best" color="68,242,219">
        <route edges="36 34 26 27 23 19 18 17 13 10 11 48"/>
    </vehicle>
    <vehicle id="fl47_st0.0.11" depart="41.32" departLane="best" color="68,242,219">
        <route edges="47 45 42 41 23 19 18 17 15"/>
    </vehicle>
    <vehicle id="fl43_st0.0.4" depart="41.88" departLane="best" color="68,242,219">
        <route edges="43 46"/>
    </vehicle>
    <vehicle id="fl47_st0.0.12" depart="42.12" departLane="best" color="68,242,219">
        <route edges="47 45 42 41 23 22"/>
    </vehicle>
    <vehicle id="fl43_st0.0.5" depart="42.27" departLane="best" color="68,242,219">
        <route edges="43 46"/>
    </vehicle>
    <vehicle id="fl47_st0.0.13" depart="43.27" departLane="best" color="68,242,219">
        <route edges="47 45 42 41 23 19 18 17 15"/>
    </vehicle>
    <vehicle id="fl39_st0.0.3" depart="44.01" departLane="best" color="68,242,219">
        <route edges="39 37 40 46"/>
    </vehicle>
    <vehicle id="fl47_st0.0.14" depart="44.40" departLane="best" color="68,242,219">
        <route edges="47 45 42 41 23 19 18 17 15"/>
    </vehicle>
    <vehicle id="fl21_st0.0.8" depart="45.09" departLane="best" color="68,242,219">
        <route edges="21 24 40 46"/>
    </vehicle>
    <vehicle id="fl43_st0.0.6" depart="46.86" departLane="best" color="68,242,219">
        <route edges="43 46"/>
    </vehicle>
    <vehicle id="fl29_st0.0.1" depart="48.78" departLane="best" color="68,242,219">
        <route edges="29 26 27 23 22"/>
    </vehicle>
    <vehicle id="fl21_st0.0.9" depart="50.04" departLane="best" color="68,242,219">
        <route edges="21 24 25 28 35"/>
    </vehicle>
    <vehicle id="fl14_st0.0.6" depart="51.67" departLane="best" color="68,242,219">
        <route edges="14 16 20 24 40 46"/>
    </vehicle>
    <vehicle id="fl21_st0.0.10" depart="52.42" departLane="best" color="68,242,219">
        <route edges="21 24 38"/>
    </vehicle>
    <vehicle id="fl14_st0.0.7" depart="54.29" departLane="best" color="68,242,219">
        <route edges="14 16 20 22"/>
    </vehicle>
    <vehicle id="fl29_st0.0.2" depart="55.32" departLane="best" color="68,242,219">
        <route edges="29 35"/>
    </vehicle>
    <vehicle id="fl14_st0.0.8" depart="55.90" departLane="best" color="68,242,219">
        <route edges="14 16 20 24 40 46"/>
    </vehicle>
    <vehicle id="fl1_st0.0.5" depart="58.63" departLane="best" color="68,242,219">
        <route edges="1 5 9"/>
    </vehicle>
    <vehicle id="fl36_st0.0.5" depart="62.38" departLane="best" color="68,242,219">
        <route edges="36 34 26 27 38"/>
    </vehicle>
    <vehicle id="fl47_st0.0.15" depart="64.19" departLane="best" color="68,242,219">
        <route edges="47 45 44"/>
    </vehicle>
    <vehicle id="fl47_st0.0.16" depart="64.38" departLane="best" color="68,242,219">
        <route edges="47 45 42 41 25 28 33"/>
    </vehicle>
    <vehicle id="fl39_st0.0.4" depart="64.47" departLane="best" color="68,242,219">
        <route edges="39 37 23 19 18 17 15"/>
    </vehicle>
    <vehicle id="fl36_st0.0.6" depart="64.79" departLane="best" color="68,242,219">
        <route edges="36 34 26 27 38"/>
    </vehicle>
    <vehicle id="fl14_st0.0.9" depart="65.91" departLane="best" color="68,242,219">
        <route edges="14 16 20 24 40 46"/>
    </vehicle>
    <vehicle id="fl47_st0.0.17" depart="66.73" departLane="best" color="68,242,219">
        <route edges="47 45 42 41 23 22"/>
    </vehicle>
    <vehicle id="fl14_st0.0.10" depart="69.76" departLane="best" color="68,242,219">
        <route edges="14 16 20 24 25 28 35"/>
    </vehicle>
    <vehicle id="fl47_st0.0.18" depart="69.93" departLane="best" color="68,242,219">
        <route edges="47 45 42 41 23 22"/>
    </vehicle>
    <vehicle id="fl21_st0.0.11" depart="71.50" departLane="best" color="68,242,219">
        <route edges="21 24 38"/>
    </vehicle>
    <vehicle id="fl14_st0.0.11" depart="72.76" departLane="best" color="68,242,219">
        <route edges="14 13 10 11 9"/>
    </vehicle>
    <vehicle id="fl47_st0.0.19" depart="72.92" departLane="best" color="68,242,219">
        <route edges="47 45 42 41 23 19 18 17 13 10 11 48"/>
    </vehicle>
    <vehicle id="fl8_st0.0.4" depart="74.27" departLane="best" color="68,242,219">
        <route edges="8 2 3 16 20 24 25 28 35"/>
    </vehicle>
    <vehicle id="fl36_st0.0.7" depart="75.16" departLane="best" color="68,242,219">
        <route edges="36 34 26 27 23 22"/>
    </vehicle>
    <vehicle id="fl21_st0.0.12" depart="75.57" departLane="best" color="68,242,219">
        <route edges="21 24 40 46"/>
    </vehicle>
    <vehicle id="fl39_st0.0.5" depart="76.23" departLane="best" color="68,242,219">
        <route edges="39 37 25 28 35"/>
    </vehicle>
    <vehicle id="fl1_st0.0.6" depart="76.70" departLane="best" color="68,242,219">
        <route edges="1 6 3 15"/>
    </vehicle>
    <vehicle id="fl36_st0.0.8" depart="80.03" departLane="best" color="68,242,219">
        <route edges="36 34 26 27 23 19 18 17 15"/>
    </vehicle>
    <vehicle id="fl47_st0.0.20" depart="80.55" departLane="best" color="68,242,219">
        <route edges="47 45 42 41 23 19 18 17 13 10 11 48"/>
    </vehicle>
    <vehicle id="fl21_st0.0.13" depart="80.70" departLane="best" color="68,242,219">
        <route edges="21 24 40 46"/>
    </vehicle>
    <vehicle id="fl21_st0.0.14" depart="81.06" departLane="best" color="68,242,219">
        <route edges="21 24 25 28 35"/>
    </vehicle>
    <vehicle id="fl21_st0.0.15" depart="81.22" departLane="best" color="68,242,219">
        <route edges="21 24 25 28 35"/>
    </vehicle>
    <vehicle id="fl36_st0.0.9" depart="81.58" departLane="best" color="68,242,219">
        <route edges="36 34 26 27 23 19 18 17 15"/>
    </vehicle>
    <vehicle id="fl1_st0.0.7" depart="82.27" departLane="best" color="68,242,219">
        <route edges="1 6 3 16 20 24 25 28 30"/>
    </vehicle>
    <vehicle id="fl32_st0.0.0" depart="82.29" departLane="best" color="68,242,219">
        <route edges="32 31 26 27 38"/>
    </vehicle>
    <vehicle id="fl8_st0.0.5" depart="82.40" departLane="best" color="68,242,219">
        <route edges="8 2 3 16 20 22"/>
    </vehicle>
    <vehicle id="fl32_st0.0.1" depart="83.03" departLane="best" color="68,242,219">
        <route edges="32 31 35"/>
    </vehicle>
    <vehicle id="fl8_st0.0.6" depart="84.31" departLane="best" color="68,242,219">
        <route edges="8 2 3 16 20 24 40 46"/>
    </vehicle>
    <vehicle id="fl21_st0.0.16" depart="84.65" departLane="best" color="68,242,219">
        <route edges="21 24 40 46"/>
    </vehicle>
    <vehicle id="fl21_st0.0.17" depart="86.17" departLane="best" color="68,242,219">
        <route edges="21 19 18 17 13 10 11 9"/>
    </vehicle>
    <vehicle id="fl21_st0.0.18" depart="87.38" departLane="best" color="68,242,219">
        <route edges="21 24 25 28 35"/>
    </vehicle>
    <vehicle id="fl47_st0.0.21" depart="88.64" departLane="best" color="68,242,219">
        <route edges="47 45 42 41 23 19 18 17 15"/>
    </vehicle>
    <vehicle id="fl14_st0.0.12" depart="89.13" departLane="best" color="68,242,219">
        <route edges="14 16 20 24 40 46"/>
    </vehicle>
    <vehicle id="fl47_st0.0.22" depart="89.15" departLane="best" color="68,242,219">
        <route edges="47 45 42 41 23 19 18 17 15"/>
    </vehicle>
    <vehicle id="fl29_st0.0.3" depart="90.80" departLane="best" color="68,242,219">
        <route edges="29 26 27 40 46"/>
    </vehicle>
    <vehicle id="fl21_st0.0.19" depart="90.90" departLane="best" color="68,242,219">
        <route edges="21 19 18 17 15"/>
    </vehicle>
    <vehicle id="fl21_st0.0.20" depart="91.11" departLane="best" color="68,242,219">
        <route edges="21 24 40 46"/>
    </vehicle>
    <vehicle id="fl47_st0.0.23" depart="91.63" departLane="best" color="68,242,219">
        <route edges="47 45 42 41 23 19 18 17 15"/>
    </vehicle>
    <vehicle id="fl21_st0.0.21" depart="91.77" departLane="best" color="68,242,219">
        <route edges="21 24 25 28 30"/>
    </vehicle>
    <vehicle id="fl14_st0.0.13" depart="96.14" departLane="best" color="68,242,219">
        <route edges="14 16 20 24 40 46"/>
    </vehicle>
    <vehicle id="fl47_st0.0.24" depart="96.67" departLane="best" color="68,242,219">
        <route edges="47 45 42 41 38"/>
    </vehicle>
    <vehicle id="fl21_st0.0.22" depart="96.97" departLane="best" color="68,242,219">
        <route edges="21 19 18 17 15"/>
    </vehicle>
    <vehicle id="fl1_st0.0.8" depart="96.98" departLane="best" color="68,242,219">
        <route edges="1 6 3 16 20 24 40 46"/>
    </vehicle>
    <vehicle id="fl39_st0.0.6" depart="97.72" departLane="best" color="68,242,219">
        <route edges="39 37 23 19 18 17 13 10 11 9"/>
    </vehicle>
    <vehicle id="fl36_st0.0.10" depart="100.89" departLane="best" color="68,242,219">
        <route edges="36 34 26 27 23 19 18 17 13 10 11 48"/>
    </vehicle>
    <vehicle id="fl8_st0.0.7" depart="101.75" departLane="best" color="68,242,219">
        <route edges="8 2 3 16 20 24 40 44"/>
    </vehicle>
    <vehicle id="fl36_st0.0.11" depart="101.81" departLane="best" color="68,242,219">
        <route edges="36 34 26 27 23 22"/>
    </vehicle>
    <vehicle id="fl39_st0.0.7" depart="103.16" departLane="best" color="68,242,219">
        <route edges="39 37 40 44"/>
    </vehicle>
    <vehicle id="fl43_st0.0.7" depart="106.12" departLane="best" color="68,242,219">
        <route edges="43 42 41 23 19 18 17 15"/>
    </vehicle>
    <vehicle id="fl8_st0.0.8" depart="107.37" departLane="best" color="68,242,219">
        <route edges="8 2 3 16 20 24 40 46"/>
    </vehicle>
    <vehicle id="fl14_st0.0.14" depart="107.72" departLane="best" color="68,242,219">
        <route edges="14 16 20 22"/>
    </vehicle>
    <vehicle id="fl14_st0.0.15" depart="110.25" departLane="best" color="68,242,219">
        <route edges="14 16 20 24 40 46"/>
    </vehicle>
    <vehicle id="fl14_st0.0.16" depart="110.32" departLane="best" color="68,242,219">
        <route edges="14 16 20 24 40 46"/>
    </vehicle>
    <vehicle id="fl1_st0.0.9" depart="110.61" departLane="best" color="68,242,219">
        <route edges="1 6 3 16 20 24 40 46"/>
    </vehicle>
    <vehicle id="fl1_st0.0.10" depart="112.67" departLane="best" color="68,242,219">
        <route edges="1 6 3 16 20 22"/>
    </vehicle>
    <vehicle id="fl47_st0.0.25" depart="113.63" departLane="best" color="68,242,219">
        <route edges="47 45 42 41 23 19 18 17 13 10 11 9"/>
    </vehicle>
    <vehicle id="fl8_st0.0.9" depart="114.37" departLane="best" color="68,242,219">
        <route edges="8 2 3 16 20 24 40 46"/>
    </vehicle>
    <vehicle id="fl14_st0.0.17" depart="114.69" departLane="best" color="68,242,219">
        <route edges="14 16 20 24 25 28 35"/>
    </vehicle>
    <vehicle id="fl43_st0.0.8" depart="115.69" departLane="best" color="68,242,219">
        <route edges="43 42 41 23 19 18 17 15"/>
    </vehicle>
    <vehicle id="fl21_st0.0.23" depart="115.75" departLane="best" color="68,242,219">
        <route edges="21 24 40 46"/>
    </vehicle>
    <vehicle id="fl47_st0.0.26" depart="116.18" departLane="best" color="68,242,219">
        <route edges="47 45 42 41 23 19 18 17 15"/>
    </vehicle>
    <vehicle id="fl21_st0.0.24" depart="116.71" departLane="best" color="68,242,219">
        <route edges="21 24 40 46"/>
    </vehicle>
    <vehicle id="fl36_st0.0.12" depart="117.47" departLane="best" color="68,242,219">
        <route edges="36 34 30"/>
    </vehicle>
    <vehicle id="fl47_st0.0.27" depart="118.00" departLane="best" color="68,242,219">
        <route edges="47 45 42 41 23 19 18 17 15"/>
    </vehicle>
    <vehicle id="fl43_st0.0.9" depart="120.29" departLane="best" color="68,242,219">
        <route edges="43 42 41 23 19 18 17 13 10 11 9"/>
    </vehicle>
    <vehicle id="fl36_st0.0.13" depart="121.26" departLane="best" color="68,242,219">
        <route edges="36 34 26 27 23 22"/>
    </vehicle>
    <vehicle id="fl43_st0.0.10" depart="122.22" departLane="best" color="68,242,219">
        <route edges="43 46"/>
    </vehicle>
    <vehicle id="fl32_st0.0.2" depart="122.67" departLane="best" color="68,242,219">
        <route edges="32 31 26 27 23 19 18 17 15"/>
    </vehicle>
    <vehicle id="fl14_st0.0.18" depart="123.12" departLane="best" color="68,242,219">
        <route edges="14 16 20 24 40 44"/>
    </vehicle>
    <vehicle id="fl21_st0.0.25" depart="123.98" departLane="best" color="68,242,219">
        <route edges="21 19 18 17 15"/>
    </vehicle>
    <vehicle id="fl21_st0.0.26" depart="124.37" departLane="best" color="68,242,219">
        <route edges="21 24 40 46"/>
    </vehicle>
    <vehicle id="fl7_st0.0.1" depart="124.59" departLane="best" color="68,242,219">
        <route edges="7 4 3 16 20 24 25 28 35"/>
    </vehicle>
    <vehicle id="fl43_st0.0.11" depart="125.89" departLane="best" color="68,242,219">
        <route edges="43 46"/>
    </vehicle>
    <vehicle id="fl21_st0.0.27" depart="125.91" departLane="best" color="68,242,219">
        <route edges="21 24 40 44"/>
    </vehicle>
    <vehicle id="fl14_st0.0.19" depart="126.18" departLane="best" color="68,242,219">
        <route edges="14 16 20 24 25 28 33"/>
    </vehicle>
    <vehicle id="fl36_st0.0.14" depart="127.11" departLane="best" color="68,242,219">
        <route edges="36 34 26 27 23 19 18 17 13 10 11 9"/>
    </vehicle>
    <vehicle id="fl36_st0.0.15" depart="127.24" departLane="best" color="68,242,219">
        <route edges="36 34 26 27 23 19 18 17 15"/>
    </vehicle>
    <vehicle id="fl47_st0.0.28" depart="128.63" departLane="best" color="68,242,219">
        <route edges="47 45 42 41 23 19 18 17 13 10 11 48"/>
    </vehicle>
    <vehicle id="fl47_st0.0.29" depart="128.75" departLane="best" color="68,242,219">
        <route edges="47 45 42 41 23 19 18 17 15"/>
    </vehicle>
    <vehicle id="fl43_st0.0.12" depart="130.70" departLane="best" color="68,242,219">
        <route edges="43 46"/>
    </vehicle>
    <vehicle id="fl14_st0.0.20" depart="132.93" departLane="best" color="68,242,219">
        <route edges="14 16 20 24 25 28 30"/>
    </vehicle>
    <vehicle id="fl21_st0.0.28" depart="133.70" departLane="best" color="68,242,219">
        <route edges="21 24 38"/>
    </vehicle>
    <vehicle id="fl14_st0.0.21" depart="136.04" departLane="best" color="68,242,219">
        <route edges="14 16 20 24 40 46"/>
    </vehicle>
    <vehicle id="fl14_st0.0.22" depart="136.12" departLane="best" color="68,242,219">
        <route edges="14 16 20 24 25 28 35"/>
    </vehicle>
    <vehicle id="fl1_st0.0.11" depart="136.25" departLane="best" color="68,242,219">
        <route edges="1 6 3 16 20 24 25 28 35"/>
    </vehicle>
    <vehicle id="fl21_st0.0.29" depart="136.58" departLane="best" color="68,242,219">
        <route edges="21 24 40 46"/>
    </vehicle>
    <vehicle id="fl47_st0.0.30" depart="136.63" departLane="best" color="68,242,219">
        <route edges="47 45 42 41 23 22"/>
    </vehicle>
    <vehicle id="fl14_st0.0.23" depart="137.26" departLane="best" color="68,242,219">
        <route edges="14 13 10 11 48"/>
    </vehicle>
    <vehicle id="fl1_st0.0.12" depart="137.63" departLane="best" color="68,242,219">
        <route edges="1 6 3 15"/>
    </vehicle>
    <vehicle id="fl14_st0.0.24" depart="138.57" departLane="best" color="68,242,219">
        <route edges="14 16 20 22"/>
    </vehicle>
    <vehicle id="fl36_st0.0.16" depart="138.78" departLane="best" color="68,242,219">
        <route edges="36 34 26 27 38"/>
    </vehicle>
    <vehicle id="fl21_st0.0.30" depart="139.41" departLane="best" color="68,242,219">
        <route edges="21 24 40 46"/>
    </vehicle>
    <vehicle id="fl14_st0.0.25" depart="139.53" departLane="best" color="68,242,219">
        <route edges="14 16 20 24 38"/>
    </vehicle>
    <vehicle id="fl39_st0.0.8" depart="139.53" departLane="best" color="68,242,219">
        <route edges="39 37 40 44"/>
    </vehicle>
    <vehicle id="fl21_st0.0.31" depart="139.89" departLane="best" color="68,242,219">
        <route edges="21 24 40 46"/>
    </vehicle>
    <vehicle id="fl1_st0.0.13" depart="140.44" departLane="best" color="68,242,219">
        <route edges="1 5 49 50"/>
    </vehicle>
    <vehicle id="fl43_st0.0.13" depart="141.62" departLane="best" color="68,242,219">
        <route edges="43 46"/>
    </vehicle>
    <vehicle id="fl47_st0.0.31" depart="142.61" departLane="best" color="68,242,219">
        <route edges="47 45 42 41 23 19 18 17 13 10 11 9"/>
    </vehicle>
    <vehicle id="fl1_st0.0.14" depart="144.91" departLane="best" color="68,242,219">
        <route edges="1 6 3 16 20 22"/>
    </vehicle>
    <vehicle id="fl43_st0.0.14" depart="145.09" departLane="best" color="68,242,219">
        <route edges="43 42 41 23 19 18 17 15"/>
    </vehicle>
    <vehicle id="fl47_st0.0.32" depart="146.07" departLane="best" color="68,242,219">
        <route edges="47 45 42 41 23 19 18 17 13 10 11 9"/>
    </vehicle>
    <vehicle id="fl47_st0.0.33" depart="147.46" departLane="best" color="68,242,219">
        <route edges="47 45 42 41 23 19 18 17 15"/>
    </vehicle>
    <vehicle id="fl47_st0.0.34" depart="148.61" departLane="best" color="68,242,219">
        <route edges="47 45 42 41 23 19 18 17 13 10 11 48"/>
    </vehicle>
    <vehicle id="fl1_st0.0.15" depart="150.04" departLane="best" color="68,242,219">
        <route edges="1 6 3 16 20 22"/>
    </vehicle>
    <vehicle id="fl39_st0.0.9" depart="150.17" departLane="best" color="68,242,219">
        <route edges="39 37 23 19 18 17 13 10 11 48"/>
    </vehicle>
    <vehicle id="fl47_st0.0.35" depart="151.14" departLane="best" color="68,242,219">
        <route edges="47 45 42 41 23 19 18 17 15"/>
    </vehicle>
    <vehicle id="fl21_st0.0.32" depart="152.80" departLane="best" color="68,242,219">
        <route edges="21 24 40 46"/>
    </vehicle>
    <vehicle id="fl1_st0.0.16" depart="154.78" departLane="best" color="68,242,219">
        <route edges="1 6 3 16 20 24 40 46"/>
    </vehicle>
    <vehicle id="fl1_st0.0.17" depart="154.82" departLane="best" color="68,242,219">
        <route edges="1 6 3 16 20 24 40 46"/>
    </vehicle>
    <vehicle id="fl39_st0.0.10" depart="155.03" departLane="best" color="68,242,219">
        <route edges="39 37 23 22"/>
    </vehicle>
    <vehicle id="fl43_st0.0.15" depart="156.57" departLane="best" color="68,242,219">
        <route edges="43 46"/>
    </vehicle>
    <vehicle id="fl21_st0.0.33" depart="156.76" departLane="best" color="68,242,219">
        <route edges="21 24 25 28 35"/>
    </vehicle>
    <vehicle id="fl39_st0.0.11" depart="157.60" departLane="best" color="68,242,219">
        <route edges="39 37 23 22"/>
    </vehicle>
    <vehicle id="fl47_st0.0.36" depart="157.71" departLane="best" color="68,242,219">
        <route edges="47 45 42 41 23 19 18 17 13 10 11 48"/>
    </vehicle>
    <vehicle id="fl21_st0.0.34" depart="159.58" departLane="best" color="68,242,219">
        <route edges="21 24 25 28 35"/>
    </vehicle>
    <vehicle id="fl14_st0.0.26" depart="160.02" departLane="best" color="68,242,219">
        <route edges="14 13 10 11 48"/>
    </vehicle>
    <vehicle id="fl1_st0.0.18" depart="160.12" departLane="best" color="68,242,219">
        <route edges="1 6 3 16 20 22"/>
    </vehicle>
    <vehicle id="fl47_st0.0.37" depart="160.24" departLane="best" color="68,242,219">
        <route edges="47 45 42 41 23 22"/>
    </vehicle>
    <vehicle id="fl47_st0.0.38" depart="160.56" departLane="best" color="68,242,219">
        <route edges="47 45 42 41 23 19 18 17 13 10 11 9"/>
    </vehicle>
    <vehicle id="fl39_st0.0.12" depart="160.82" departLane="best" color="68,242,219">
        <route edges="39 37 23 22"/>
    </vehicle>
    <vehicle id="fl21_st0.0.35" depart="161.08" departLane="best" color="68,242,219">
        <route edges="21 22"/>
    </vehicle>
    <vehicle id="fl47_st0.0.39" depart="161.75" departLane="best" color="68,242,219">
        <route edges="47 45 42 41 23 19 18 17 13 10 11 48"/>
    </vehicle>
    <vehicle id="fl8_st0.0.10" depart="163.98" departLane="best" color="68,242,219">
        <route edges="8 2 3 16 20 24 40 46"/>
    </vehicle>
    <vehicle id="fl21_st0.0.36" depart="164.11" departLane="best" color="68,242,219">
        <route edges="21 24 25 28 30"/>
    </vehicle>
    <vehicle id="fl39_st0.0.13" depart="167.17" departLane="best" color="68,242,219">
        <route edges="39 37 23 22"/>
    </vehicle>
    <vehicle id="fl14_st0.0.27" depart="168.44" departLane="best" color="68,242,219">
        <route edges="14 16 20 22"/>
    </vehicle>
    <vehicle id="fl8_st0.0.11" depart="170.21" departLane="best" color="68,242,219">
        <route edges="8 2 48"/>
    </vehicle>
    <vehicle id="fl39_st0.0.14" depart="170.41" departLane="best" color="68,242,219">
        <route edges="39 37 25 28 35"/>
    </vehicle>
    <vehicle id="fl14_st0.0.28" depart="172.58" departLane="best" color="68,242,219">
        <route edges="14 15"/>
    </vehicle>
    <vehicle id="fl36_st0.0.17" depart="173.13" departLane="best" color="68,242,219">
        <route edges="36 34 26 27 23 19 18 17 13 10 11 48"/>
    </vehicle>
    <vehicle id="fl1_st0.0.19" depart="175.44" departLane="best" color="68,242,219">
        <route edges="1 6 3 15"/>
    </vehicle>
    <vehicle id="fl8_st0.0.12" depart="176.49" departLane="best" color="68,242,219">
        <route edges="8 2 3 16 20 24 40 46"/>
    </vehicle>
    <vehicle id="fl14_st0.0.29" depart="176.99" departLane="best" color="68,242,219">
        <route edges="14 16 20 22"/>
    </vehicle>
    <vehicle id="fl14_st0.0.30" depart="180.24" departLane="best" color="68,242,219">
        <route edges="14 16 20 24 25 28 33"/>
    </vehicle>
    <vehicle id="fl14_st0.0.31" depart="180.93" departLane="best" color="68,242,219">
        <route edges="14 16 20 24 25 28 35"/>
    </vehicle>
    <vehicle id="fl36_st0.0.18" depart="180.98" departLane="best" color="68,242,219">
        <route edges="36 34 26 27 38"/>
    </vehicle>
    <vehicle id="fl47_st0.0.40" depart="181.15" departLane="best" color="68,242,219">