<?xml version="1.0" ?><!-- generated on 2022-04-19 15:59:43 by Eclipse SUMO netedit Version 1.12.0
<configuration xmlns:xsi="http://www.w3.org/2001/XMLSchema-instance" xsi:noNamespaceSchemaLocation="http://sumo.dlr.de/xsd/netconvertConfiguration.xsd">

    <input>
        <sumo-net-file value="./networks/marshall/marshall.net.xml"/>
    </input>

    <output>
        <output-file value="./networks/marshall/marshall.net.xml"/>
    </output>

    <processing>
        <geometry.min-radius.fix.railways value="false"/>
        <geometry.max-grade.fix value="false"/>
        <offset.disable-normalization value="true"/>
        <lefthand value="false"/>
    </processing>

    <junctions>
        <no-turnarounds value="true"/>
        <junctions.corner-detail value="5"/>
        <junctions.limit-turn-speed value="5.5"/>
        <rectangular-lane-cut value="false"/>
    </junctions>

    <pedestrian>
        <walkingareas value="false"/>
    </pedestrian>

    <report>
        <aggregate-warnings value="5"/>
    </report>

</configuration>
--><net xmlns:xsi="http://www.w3.org/2001/XMLSchema-instance" version="1.9" junctionCornerDetail="5" limitTurnSpeed="5.50" xsi:noNamespaceSchemaLocation="http://sumo.dlr.de/xsd/net_file.xsd">

    <location netOffset="92.48,-19.05" convBoundary="0.00,0.00,1081.99,546.41" origBoundary="-92.48,19.05,989.52,565.46" projParameter="!"/>

    <edge id=":0_0" function="internal">
        <lane id=":0_0_0" index="0" speed="13.89" length="15.05" width="3.50" shape="91.65,109.50 91.90,114.17 92.97,117.61 94.56,120.48 96.36,123.47"/>
    </edge>
    <edge id=":0_1" function="internal">
        <lane id=":0_1_0" index="0" speed="13.89" length="12.62" width="3.50" shape="91.65,109.50 91.01,122.10"/>
        <lane id=":0_1_1" index="1" speed="13.89" length="12.62" width="3.50" shape="88.15,109.34 87.51,121.95"/>
    </edge>
    <edge id=":1_0" function="internal">
        <lane id=":1_0_0" index="0" speed="13.89" length="17.88" width="3.50" shape="30.75,106.34 33.98,108.03 37.71,109.26 42.03,110.94 47.07,113.98"/>
        <lane id=":1_0_1" index="1" speed="13.89" length="17.88" width="3.50" shape="30.75,106.34 44.99,116.80"/>
    </edge>
    <edge id=":10_0" function="internal">
        <lane id=":10_0_0" index="0" speed="13.89" length="13.49" width="3.50" shape="528.66,348.11 524.81,347.06 522.04,346.84 519.26,346.62 515.40,345.57"/>
        <lane id=":10_0_1" index="1" speed="13.89" length="13.49" width="3.50" shape="528.66,348.11 525.01,346.55 522.64,345.19 520.26,343.84 516.61,342.28"/>
        <lane id=":10_0_2" index="2" speed="13.89" length="13.49" width="3.50" shape="529.88,344.83 526.02,343.77 523.24,343.55 520.47,343.33 516.61,342.28"/>
        <lane id=":10_0_3" index="3" speed="13.89" length="13.49" width="3.50" shape="529.88,344.83 526.22,343.26 523.85,341.91 521.47,340.55 517.82,338.99"/>
    </edge>
    <edge id=":11_0" function="internal">
        <lane id=":11_0_0" index="0" speed="7.02" length="9.74" width="3.50" shape="576.62,368.39 574.04,367.83 571.83,368.18 569.99,369.45 568.51,371.63"/>
    </edge>
    <edge id=":11_1" function="internal">
        <lane id=":11_1_0" index="0" speed="13.89" length="20.31" width="3.50" shape="577.84,365.11 558.46,359.09"/>
        <lane id=":11_1_1" index="1" speed="13.89" length="20.31" width="3.50" shape="579.07,361.83 559.67,355.81"/>
    </edge>
    <edge id=":11_3" function="internal">
        <lane id=":11_3_0" index="0" speed="8.13" length="11.54" width="3.50" shape="577.38,339.79 577.64,342.35 578.87,344.57 581.07,346.45 584.25,347.99"/>
        <lane id=":11_3_1" index="1" speed="9.51" length="16.11" width="3.50" shape="573.90,339.50 574.21,343.27 575.84,346.49 578.77,349.16 583.02,351.27"/>
    </edge>
    <edge id=":11_5" function="internal">
        <lane id=":11_5_0" index="0" speed="13.89" length="31.50" width="3.50" shape="570.41,339.20 569.71,349.07 569.07,356.88 567.84,363.58 565.37,370.09"/>
    </edge>
    <edge id=":11_6" function="internal">
        <lane id=":11_6_0" index="0" speed="9.23" length="23.07" width="3.50" shape="570.41,339.20 569.40,346.81 567.52,352.65 564.40,355.93 559.67,355.81"/>
    </edge>
    <edge id=":11_7" function="internal">
        <lane id=":11_7_0" index="0" speed="13.89" length="20.60" width="3.50" shape="564.39,342.99 583.02,351.27"/>
        <lane id=":11_7_1" index="1" speed="13.89" length="20.60" width="3.50" shape="563.18,346.27 581.80,354.55"/>
        <lane id=":11_7_2" index="2" speed="13.89" length="20.60" width="3.50" shape="563.18,346.27 568.63,349.16 571.86,352.10 575.10,355.01 580.57,357.83"/>
    </edge>
    <edge id=":11_10" function="internal">
        <lane id=":11_10_0" index="0" speed="9.96" length="8.63" width="3.50" shape="561.97,349.56 566.42,352.49 567.81,355.48"/>
    </edge>
    <edge id=":11_11" function="internal">
        <lane id=":11_11_0" index="0" speed="9.96" length="15.27" width="3.50" shape="567.81,355.48 568.47,356.89 568.12,362.76 565.37,370.09"/>
    </edge>
    <edge id=":12_0" function="internal">
        <lane id=":12_0_0" index="0" speed="8.27" length="14.99" width="3.50" shape="662.81,398.63 658.18,397.39 654.48,397.50 651.71,398.97 649.88,401.79"/>
    </edge>
    <edge id=":12_1" function="internal">
        <lane id=":12_1_0" index="0" speed="13.89" length="28.37" width="3.50" shape="662.81,398.63 636.96,386.97"/>
        <lane id=":12_1_1" index="1" speed="13.89" length="28.37" width="3.50" shape="664.05,395.36 638.17,383.69"/>
    </edge>
    <edge id=":12_3" function="internal">
        <lane id=":12_3_0" index="0" speed="10.86" length="7.67" width="3.50" shape="665.29,392.09 658.92,388.45 658.73,388.18"/>
    </edge>
    <edge id=":12_15" function="internal">
        <lane id=":12_15_0" index="0" speed="10.86" length="20.33" width="3.50" shape="658.73,388.18 655.43,383.43 654.83,377.02 657.10,369.23"/>
    </edge>
    <edge id=":12_4" function="internal">
        <lane id=":12_4_0" index="0" speed="7.75" length="13.65" width="3.50" shape="666.71,373.44 665.12,377.97 664.76,381.51 665.64,384.04 667.76,385.58"/>
    </edge>
    <edge id=":12_5" function="internal">
        <lane id=":12_5_0" index="0" speed="13.89" length="32.73" width="3.50" shape="663.51,372.04 649.88,401.79"/>
    </edge>
    <edge id=":12_6" function="internal">
        <lane id=":12_6_0" index="0" speed="12.46" length="34.17" width="3.50" shape="663.51,372.04 658.34,380.95 652.20,386.42 645.07,388.42 636.96,386.97"/>
        <lane id=":12_6_1" index="1" speed="11.47" length="28.78" width="3.50" shape="660.30,370.63 655.91,378.30 650.76,383.03 644.85,384.83 638.17,383.69"/>
    </edge>
    <edge id=":12_8" function="internal">
        <lane id=":12_8_0" index="0" speed="8.44" length="15.16" width="3.50" shape="643.21,370.06 648.44,371.64 652.49,372.03 655.38,371.23 657.10,369.23"/>
    </edge>
    <edge id=":12_9" function="internal">
        <lane id=":12_9_0" index="0" speed="13.89" length="28.50" width="3.50" shape="642.00,373.35 667.76,385.58"/>
        <lane id=":12_9_1" index="1" speed="13.89" length="28.50" width="3.50" shape="640.78,376.63 666.52,388.85"/>
    </edge>
    <edge id=":12_11" function="internal">
        <lane id=":12_11_0" index="0" speed="10.94" length="9.44" width="3.50" shape="639.57,379.91 646.39,383.59 647.46,384.90"/>
    </edge>
    <edge id=":12_16" function="internal">
        <lane id=":12_16_0" index="0" speed="10.94" length="18.23" width="3.50" shape="647.46,384.90 650.38,388.46 651.54,394.53 649.88,401.79"/>
    </edge>
    <edge id=":12_12" function="internal">
        <lane id=":12_12_0" index="0" speed="7.69" length="13.17" width="3.50" shape="643.35,399.23 643.68,396.65 642.52,394.30 639.87,392.16 635.75,390.25"/>
    </edge>
    <edge id=":12_13" function="internal">
        <lane id=":12_13_0" index="0" speed="13.89" length="32.99" width="3.50" shape="646.61,400.51 657.10,369.23"/>
    </edge>
    <edge id=":12_14" function="internal">
        <lane id=":12_14_0" index="0" speed="10.76" length="26.12" width="3.50" shape="646.61,400.51 650.34,393.52 654.89,389.25 660.29,387.69 666.52,388.85"/>
    </edge>
    <edge id=":13_0" function="internal">
        <lane id=":13_0_0" index="0" speed="13.89" length="9.59" width="3.50" shape="694.11,301.76 695.28,299.15 695.33,297.01 695.38,294.88 696.56,292.27"/>
        <lane id=":13_0_1" index="1" speed="13.89" length="9.59" width="3.50" shape="694.11,301.76 699.42,294.27"/>
    </edge>
    <edge id=":14_0" function="internal">
        <lane id=":14_0_0" index="0" speed="7.06" length="11.19" width="3.50" shape="720.55,288.37 717.92,286.85 715.46,286.62 713.15,287.66 711.00,289.97"/>
    </edge>
    <edge id=":14_1" function="internal">
        <lane id=":14_1_0" index="0" speed="13.89" length="23.20" width="3.50" shape="720.55,288.37 716.42,285.51 710.83,282.05 705.21,278.64 700.96,275.94"/>
    </edge>
    <edge id=":14_2" function="internal">
        <lane id=":14_2_0" index="0" speed="9.49" length="21.77" width="3.50" shape="720.55,288.37 715.22,283.29 712.46,278.58 712.26,274.25 714.63,270.29"/>
    </edge>
    <edge id=":14_3" function="internal">
        <lane id=":14_3_0" index="0" speed="6.47" length="9.30" width="3.50" shape="722.12,277.63 720.66,279.76 720.27,281.80 720.96,283.75 722.73,285.63"/>
    </edge>
    <edge id=":14_4" function="internal">
        <lane id=":14_4_0" index="0" speed="13.89" length="16.95" width="3.50" shape="722.12,277.63 718.68,281.18 716.24,283.54 713.96,286.03 711.00,289.97"/>
        <lane id=":14_4_1" index="1" speed="13.89" length="16.95" width="3.50" shape="719.65,275.15 716.08,278.83 713.56,281.28 711.20,283.87 708.14,287.96"/>
    </edge>
    <edge id=":14_6" function="internal">
        <lane id=":14_6_0" index="0" speed="9.54" length="6.55" width="3.50" shape="717.14,272.72 713.09,276.21 711.98,276.67"/>
    </edge>
    <edge id=":14_13" function="internal">
        <lane id=":14_13_0" index="0" speed="9.54" length="11.69" width="3.50" shape="711.98,276.67 709.04,277.91 705.00,277.82 700.96,275.94"/>
    </edge>
    <edge id=":14_7" function="internal">
        <lane id=":14_7_0" index="0" speed="7.49" length="10.67" width="3.50" shape="704.92,270.16 707.74,271.70 710.30,272.23 712.59,271.76 714.63,270.29"/>
    </edge>
    <edge id=":14_8" function="internal">
        <lane id=":14_8_0" index="0" speed="13.89" length="23.44" width="3.50" shape="702.94,273.05 722.73,285.63"/>
    </edge>
    <edge id=":14_9" function="internal">
        <lane id=":14_9_0" index="0" speed="8.92" length="17.90" width="3.50" shape="702.94,273.05 707.22,276.71 709.52,280.42 709.82,284.17 708.14,287.96"/>
    </edge>
    <edge id=":14_10" function="internal">
        <lane id=":14_10_0" index="0" speed="6.59" length="9.28" width="3.50" shape="702.40,283.93 703.55,281.66 703.70,279.57 702.83,277.67 700.96,275.94"/>
    </edge>
    <edge id=":14_11" function="internal">
        <lane id=":14_11_0" index="0" speed="13.89" length="18.35" width="3.50" shape="702.40,283.93 706.04,279.14 709.18,275.65 711.99,272.88 714.63,270.29"/>
    </edge>
    <edge id=":14_12" function="internal">
        <lane id=":14_12_0" index="0" speed="9.25" length="4.90" width="3.50" shape="705.27,285.94 708.76,282.50"/>
    </edge>
    <edge id=":14_14" function="internal">
        <lane id=":14_14_0" index="0" speed="9.25" length="15.20" width="3.50" shape="708.76,282.50 712.83,281.30 717.49,282.34 722.73,285.63"/>
    </edge>
    <edge id=":15_0" function="internal">
        <lane id=":15_0_0" index="0" speed="13.89" length="14.95" width="3.50" shape="675.12,347.50 673.62,351.61 673.31,354.67 673.07,357.77 671.75,361.96"/>
        <lane id=":15_0_1" index="1" speed="13.89" length="14.95" width="3.50" shape="672.00,345.94 670.46,350.08 670.14,353.18 669.89,356.31 668.55,360.55"/>
        <lane id=":15_0_2" index="2" speed="13.89" length="14.95" width="3.50" shape="672.00,345.94 665.35,359.14"/>
    </edge>
    <edge id=":16_0" function="internal">
        <lane id=":16_0_0" index="0" speed="13.89" length="8.26" width="3.50" shape="691.37,263.15 693.50,264.30 695.19,264.66 696.89,265.00 699.05,266.11"/>
        <lane id=":16_0_1" index="1" speed="13.89" length="8.26" width="3.50" shape="691.37,263.15 693.18,264.75 694.20,266.10 695.22,267.44 697.07,268.99"/>
    </edge>
    <edge id=":17_0" function="internal">
        <lane id=":17_0_0" index="0" speed="13.89" length="9.28" width="3.50" shape="742.58,253.73 740.84,255.77 739.91,257.38 739.02,259.02 737.36,261.13"/>
        <lane id=":17_0_1" index="1" speed="13.89" length="9.28" width="3.50" shape="740.12,251.25 738.34,253.31 737.40,254.95 736.48,256.61 734.79,258.76"/>
        <lane id=":17_0_2" index="2" speed="13.89" length="9.28" width="3.50" shape="740.12,251.25 737.92,252.96 736.11,253.76 734.33,254.59 732.22,256.39"/>
    </edge>
    <edge id=":18_0" function="internal">
        <lane id=":18_0_0" index="0" speed="13.89" length="14.38" width="3.50" shape="635.02,433.09 635.36,429.74 634.91,426.53 634.69,422.94 635.74,418.45"/>
        <lane id=":18_0_1" index="1" speed="13.89" length="14.38" width="3.50" shape="635.02,433.09 639.00,419.73"/>
    </edge>
    <edge id=":19_0" function="internal">
        <lane id=":19_0_0" index="0" speed="7.08" length="11.18" width="3.50" shape="969.73,509.08 966.79,508.47 964.37,509.02 962.49,510.73 961.14,513.59"/>
    </edge>
    <edge id=":19_1" function="internal">
        <lane id=":19_1_0" index="0" speed="13.89" length="24.09" width="3.50" shape="969.73,509.08 946.56,502.45"/>
        <lane id=":19_1_1" index="1" speed="13.89" length="24.09" width="3.50" shape="970.95,505.80 947.80,499.17"/>
    </edge>
    <edge id=":19_3" function="internal">
        <lane id=":19_3_0" index="0" speed="13.89" length="24.01" width="3.50" shape="950.29,492.62 972.18,502.50"/>
    </edge>
    <edge id=":19_4" function="internal">
        <lane id=":19_4_0" index="0" speed="10.50" length="4.66" width="3.50" shape="949.05,495.89 953.21,497.98"/>
    </edge>
    <edge id=":19_7" function="internal">
        <lane id=":19_7_0" index="0" speed="10.50" length="19.33" width="3.50" shape="953.21,497.98 955.72,499.24 959.96,503.31 961.77,508.09 961.14,513.59"/>
    </edge>
    <edge id=":19_5" function="internal">
        <lane id=":19_5_0" index="0" speed="7.94" length="13.25" width="3.50" shape="954.47,511.49 954.61,508.90 953.34,506.53 950.65,504.38 946.56,502.45"/>
    </edge>
    <edge id=":19_6" function="internal">
        <lane id=":19_6_0" index="0" speed="9.28" length="20.08" width="3.50" shape="957.81,512.54 960.32,506.75 963.56,503.15 967.51,501.73 972.18,502.50"/>
    </edge>
    <edge id=":2_0" function="internal">
        <lane id=":2_0_0" index="0" speed="13.89" length="41.68" width="3.50" shape="106.26,165.44 97.86,160.00 87.55,152.61 78.12,145.59 72.34,141.26"/>
    </edge>
    <edge id=":2_1" function="internal">
        <lane id=":2_1_0" index="0" speed="13.89" length="39.50" width="3.50" shape="107.88,162.34 96.97,155.20 89.26,148.01 84.78,140.77 83.50,133.48"/>
    </edge>
    <edge id=":2_2" function="internal">
        <lane id=":2_2_0" index="0" speed="13.89" length="22.43" width="3.50" shape="101.13,132.10 102.88,135.97 105.12,140.56 108.75,145.20 114.70,149.24"/>
    </edge>
    <edge id=":2_3" function="internal">
        <lane id=":2_3_0" index="0" speed="13.89" length="27.69" width="3.50" shape="90.50,133.79 89.68,141.57 88.30,149.34 86.98,156.16 86.34,161.14"/>
    </edge>
    <edge id=":2_4" function="internal">
        <lane id=":2_4_0" index="0" speed="8.51" length="8.70" width="3.50" shape="87.00,133.63 85.80,140.79 84.91,141.93"/>
    </edge>
    <edge id=":2_11" function="internal">
        <lane id=":2_11_0" index="0" speed="8.51" length="14.66" width="3.50" shape="84.91,141.93 82.95,144.45 78.46,144.61 72.34,141.26"/>
    </edge>
    <edge id=":2_5" function="internal">
        <lane id=":2_5_0" index="0" speed="5.92" length="10.46" width="3.50" shape="76.41,135.72 79.39,137.46 81.56,137.66 82.93,136.34 83.50,133.48"/>
    </edge>
    <edge id=":2_6" function="internal">
        <lane id=":2_6_0" index="0" speed="13.89" length="40.45" width="3.50" shape="76.41,135.72 83.64,139.93 92.73,143.88 102.86,147.92 113.20,152.40"/>
    </edge>
    <edge id=":2_7" function="internal">
        <lane id=":2_7_0" index="0" speed="13.89" length="26.62" width="3.50" shape="74.34,138.54 79.70,143.37 83.49,148.75 85.71,154.67 86.34,161.14"/>
    </edge>
    <edge id=":2_8" function="internal">
        <lane id=":2_8_0" index="0" speed="13.25" length="21.71" width="3.50" shape="79.33,160.98 79.02,154.37 77.75,148.88 75.53,144.51 72.34,141.26"/>
    </edge>
    <edge id=":2_9" function="internal">
        <lane id=":2_9_0" index="0" speed="13.89" length="27.84" width="3.50" shape="79.33,160.98 80.05,153.17 81.42,145.35 82.79,138.48 83.50,133.48"/>
    </edge>
    <edge id=":2_10" function="internal">
        <lane id=":2_10_0" index="0" speed="11.03" length="5.09" width="3.50" shape="82.83,161.06 84.31,156.19"/>
    </edge>
    <edge id=":2_12" function="internal">
        <lane id=":2_12_0" index="0" speed="11.03" length="31.61" width="3.50" shape="84.31,156.19 85.42,152.56 91.87,149.77 101.02,151.25 111.70,155.56"/>
    </edge>
    <edge id=":20_0" function="internal">
        <lane id=":20_0_0" index="0" speed="13.89" length="20.15" width="3.50" shape="753.21,428.93 747.48,427.34 743.28,427.06 739.05,426.76 733.24,425.17"/>
        <lane id=":20_0_1" index="1" speed="13.89" length="20.15" width="3.50" shape="753.21,428.93 734.47,421.89"/>
        <lane id=":20_0_2" index="2" speed="13.89" length="20.15" width="3.50" shape="754.45,425.65 735.70,418.61"/>
    </edge>
    <edge id=":21_0" function="internal">
        <lane id=":21_0_0" index="0" speed="13.89" length="19.17" width="3.50" shape="1018.88,523.54 1015.21,522.75 1011.02,522.47 1006.01,521.88 999.88,520.19"/>
        <lane id=":21_0_1" index="1" speed="13.89" length="19.17" width="3.50" shape="1018.88,523.54 1001.10,516.91"/>
    </edge>
    <edge id=":3_0" function="internal">
        <lane id=":3_0_0" index="0" speed="13.89" length="29.49" width="3.50" shape="343.96,283.35 335.34,279.52 329.19,275.90 323.92,272.48 317.97,269.24"/>
        <lane id=":3_0_1" index="1" speed="13.89" length="29.49" width="3.50" shape="345.19,280.07 336.67,276.28 330.58,272.69 325.37,269.29 319.45,266.06"/>
    </edge>
    <edge id=":3_2" function="internal">
        <lane id=":3_2_0" index="0" speed="11.67" length="18.79" width="3.50" shape="346.43,276.80 338.05,272.12 334.51,266.23 334.70,263.92"/>
        <lane id=":3_2_1" index="1" speed="10.43" length="11.79" width="3.50" shape="347.66,273.52 341.93,270.07 339.39,265.65"/>
    </edge>
    <edge id=":3_10" function="internal">
        <lane id=":3_10_0" index="0" speed="11.67" length="15.36" width="3.50" shape="334.70,263.92 335.11,258.78 339.13,249.41"/>
    </edge>
    <edge id=":3_11" function="internal">
        <lane id=":3_11_0" index="0" speed="10.43" length="15.25" width="3.50" shape="339.39,265.65 339.11,265.17 339.21,258.83 342.23,251.04"/>
    </edge>
    <edge id=":3_4" function="internal">
        <lane id=":3_4_0" index="0" speed="7.93" length="13.38" width="3.50" shape="327.00,249.76 331.34,251.43 334.81,251.93 337.41,251.26 339.13,249.41"/>
    </edge>
    <edge id=":3_5" function="internal">
        <lane id=":3_5_0" index="0" speed="13.89" length="28.13" width="3.50" shape="325.53,252.93 351.31,263.86"/>
        <lane id=":3_5_1" index="1" speed="13.89" length="28.13" width="3.50" shape="324.06,256.11 350.07,267.14"/>
    </edge>
    <edge id=":3_7" function="internal">
        <lane id=":3_7_0" index="0" speed="11.50" length="20.81" width="3.50" shape="329.13,285.33 328.52,280.27 326.46,275.90 322.94,272.22 317.97,269.24"/>
    </edge>
    <edge id=":3_8" function="internal">
        <lane id=":3_8_0" index="0" speed="13.89" length="35.91" width="3.50" shape="332.63,285.41 333.57,277.07 335.77,267.79 338.80,258.73 342.23,251.04"/>
    </edge>
    <edge id=":3_9" function="internal">
        <lane id=":3_9_0" index="0" speed="10.48" length="31.43" width="3.50" shape="332.63,285.41 333.64,275.94 336.54,269.15 341.85,265.93 350.07,267.14"/>
    </edge>
    <edge id=":4_0" function="internal">
        <lane id=":4_0_0" index="0" speed="13.89" length="9.59" width="3.50" shape="82.22,187.75 81.73,184.93 80.56,183.13 79.39,181.33 78.91,178.51"/>
        <lane id=":4_0_1" index="1" speed="13.89" length="9.59" width="3.50" shape="82.22,187.75 82.41,178.59"/>
    </edge>
    <edge id=":5_0" function="internal">
        <lane id=":5_0_0" index="0" speed="13.89" length="18.44" width="3.50" shape="255.72,240.41 238.43,233.97"/>
        <lane id=":5_0_1" index="1" speed="13.89" length="18.44" width="3.50" shape="255.72,240.41 250.90,237.85 247.82,235.68 244.75,233.49 239.97,230.83"/>
        <lane id=":5_0_2" index="2" speed="13.89" length="18.44" width="3.50" shape="257.20,237.23 252.39,234.68 249.32,232.52 246.27,230.33 241.51,227.69"/>
    </edge>
    <edge id=":6_0" function="internal">
        <lane id=":6_0_0" index="0" speed="13.89" length="8.49" width="3.50" shape="116.28,174.31 114.01,173.26 112.36,172.73 110.62,172.59 108.12,172.67"/>
    </edge>
    <edge id=":6_1" function="internal">
        <lane id=":6_1_0" index="0" speed="13.89" length="12.65" width="3.50" shape="117.82,171.17 106.44,165.54"/>
        <lane id=":6_1_1" index="1" speed="13.89" length="12.65" width="3.50" shape="119.36,168.03 108.05,162.44"/>
    </edge>
    <edge id=":7_0" function="internal">
        <lane id=":7_0_0" index="0" speed="8.49" length="15.15" width="3.50" shape="98.59,173.12 93.10,173.71 89.15,174.90 86.76,176.69 85.93,179.07"/>
    </edge>
    <edge id=":7_1" function="internal">
        <lane id=":7_1_0" index="0" speed="13.89" length="10.97" width="3.50" shape="86.18,168.11 85.93,179.07"/>
    </edge>
    <edge id=":8_0" function="internal">
        <lane id=":8_0_0" index="0" speed="13.89" length="16.06" width="3.50" shape="479.85,312.34 484.41,313.72 487.68,314.20 490.94,314.70 495.49,316.12"/>
        <lane id=":8_0_1" index="1" speed="13.89" length="16.06" width="3.50" shape="479.85,312.34 484.20,314.22 487.05,315.83 489.88,317.45 494.22,319.38"/>
        <lane id=":8_0_2" index="2" speed="13.89" length="16.06" width="3.50" shape="478.61,315.62 483.17,316.99 486.43,317.47 489.68,317.96 494.22,319.38"/>
        <lane id=":8_0_3" index="3" speed="13.89" length="16.06" width="3.50" shape="478.61,315.62 482.96,317.50 485.79,319.10 488.62,320.72 492.95,322.64"/>
    </edge>
    <edge id=":9_0" function="internal">
        <lane id=":9_0_0" index="0" speed="13.89" length="19.57" width="3.50" shape="458.28,324.62 452.73,322.89 448.81,322.11 444.89,321.32 439.36,319.53"/>
        <lane id=":9_0_1" index="1" speed="13.89" length="19.57" width="3.50" shape="458.28,324.62 452.93,322.38 449.43,320.47 445.93,318.55 440.60,316.26"/>
        <lane id=":9_0_2" index="2" speed="13.89" length="19.57" width="3.50" shape="459.49,321.33 454.15,319.09 450.65,317.19 447.16,315.28 441.84,312.98"/>
        <lane id=":9_0_3" index="3" speed="13.89" length="19.57" width="3.50" shape="460.70,318.04 455.37,315.81 451.87,313.92 448.39,312.00 443.08,309.71"/>
    </edge>

    <edge id="1" from="1-begin" to="0" priority="-1" type="1" spreadType="center" shape="94.95,0.16 89.90,109.42">
        <lane id="1_0" index="0" speed="13.89" length="109.38" width="3.50" shape="96.70,0.24 91.65,109.50"/>
        <lane id="1_1" index="1" speed="13.89" length="109.38" width="3.50" shape="93.20,0.08 88.15,109.34"/>
    </edge>
    <edge id="10" from="5" to="6" priority="-1" type="1" spreadType="center" shape="239.97,230.83 117.82,171.17">
        <lane id="10_0" index="0" speed="13.89" length="135.94" width="3.50" shape="238.43,233.97 116.28,174.31"/>
        <lane id="10_1" index="1" speed="13.89" length="135.94" width="3.50" shape="239.97,230.83 117.82,171.17"/>
        <lane id="10_2" index="2" speed="13.89" length="135.94" width="3.50" shape="241.51,227.69 119.36,168.03"/>
    </edge>
    <edge id="11" from="6" to="2" priority="-1" type="1" spreadType="center" shape="112.14,166.77 104.73,162.56">
        <lane id="11_0" index="0" speed="13.89" length="0.20" width="3.50" shape="106.44,165.54 106.26,165.44"/>
        <lane id="11_1" index="1" speed="13.89" length="0.20" width="3.50" shape="108.05,162.44 107.88,162.34"/>
    </edge>
    <edge id="12" from="6" to="7" priority="-1" type="1" spreadType="center" shape="108.12,172.67 98.59,173.12">
        <lane id="12_0" index="0" speed="13.89" length="9.54" width="3.50" shape="108.12,172.67 98.59,173.12"/>
    </edge>
    <edge id="13" from="3" to="5" priority="-1" type="1" spreadType="center" shape="318.71,267.65 256.46,238.82">
        <lane id="13_0" index="0" speed="13.89" length="68.60" width="3.50" shape="317.97,269.24 255.72,240.41"/>
        <lane id="13_1" index="1" speed="13.89" length="68.60" width="3.50" shape="319.45,266.06 257.20,237.23"/>
    </edge>
    <edge id="14" from="14-begin" to="3" priority="-1" type="1" spreadType="center" shape="329.19,360.96 330.89,284.77">
        <lane id="14_0" index="0" speed="13.89" length="75.61" width="3.50" shape="327.44,360.92 329.13,285.33"/>
        <lane id="14_1" index="1" speed="13.89" length="75.61" width="3.50" shape="330.94,361.00 332.63,285.41"/>
    </edge>
    <edge id="15" from="3" to="15-end" priority="-1" type="1" spreadType="center" shape="339.95,251.61 374.57,185.77">
        <lane id="15_0" index="0" speed="13.89" length="72.82" width="3.50" shape="339.13,249.41 373.02,184.96"/>
        <lane id="15_1" index="1" speed="13.89" length="72.82" width="3.50" shape="342.23,251.04 376.12,186.58"/>
    </edge>
    <edge id="16" from="3" to="8" priority="-1" type="1" spreadType="center" shape="350.69,265.50 479.23,313.98">
        <lane id="16_0" index="0" speed="13.89" length="137.38" width="3.50" shape="351.31,263.86 479.85,312.34"/>
        <lane id="16_1" index="1" speed="13.89" length="137.38" width="3.50" shape="350.07,267.14 478.61,315.62"/>
    </edge>
    <edge id="17" from="9" to="3" priority="-1" type="1" spreadType="center" shape="441.22,314.62 345.83,278.44">
        <lane id="17_0" index="0" speed="13.89" length="102.04" width="3.50" shape="439.36,319.53 343.96,283.35"/>
        <lane id="17_1" index="1" speed="13.89" length="102.04" width="3.50" shape="440.60,316.26 345.19,280.07"/>
        <lane id="17_2" index="2" speed="13.89" length="102.04" width="3.50" shape="441.84,312.98 346.43,276.80"/>
        <lane id="17_3" index="3" speed="13.89" length="102.04" width="3.50" shape="443.08,309.71 347.66,273.52"/>
    </edge>
    <edge id="18" from="10" to="9" priority="-1" type="1" spreadType="center" shape="516.61,342.28 459.49,321.33">
        <lane id="18_0" index="0" speed="13.89" length="60.84" width="3.50" shape="515.40,345.57 458.28,324.62"/>
        <lane id="18_1" index="1" speed="13.89" length="60.84" width="3.50" shape="516.61,342.28 459.49,321.33"/>
        <lane id="18_2" index="2" speed="13.89" length="60.84" width="3.50" shape="517.82,338.99 460.70,318.04"/>
    </edge>
    <edge id="19" from="11" to="10" priority="-1" type="1" spreadType="center" shape="559.42,357.58 529.27,346.47">
        <lane id="19_0" index="0" speed="13.89" length="31.75" width="3.50" shape="558.46,359.09 528.66,348.11"/>
        <lane id="19_1" index="1" speed="13.89" length="31.75" width="3.50" shape="559.67,355.81 529.88,344.83"/>
    </edge>
    <edge id="2" from="1" to="2" priority="-1" type="1" spreadType="center" shape="46.03,115.39 75.32,137.09">
        <lane id="2_0" index="0" speed="13.89" length="36.52" width="3.50" shape="47.07,113.98 76.41,135.72"/>
        <lane id="2_1" index="1" speed="13.89" length="36.52" width="3.50" shape="44.99,116.80 74.34,138.54"/>
    </edge>
    <edge id="20" from="8" to="11" priority="-1" type="1" spreadType="center" shape="494.22,319.38 563.41,346.36">
        <lane id="20_0" index="0" speed="13.89" length="74.02" width="3.50" shape="495.49,316.12 564.39,342.99"/>
        <lane id="20_1" index="1" speed="13.89" length="74.02" width="3.50" shape="494.22,319.38 563.18,346.27"/>
        <lane id="20_2" index="2" speed="13.89" length="74.02" width="3.50" shape="492.95,322.64 561.97,349.56"/>
    </edge>
    <edge id="21" from="21-begin" to="11" priority="-1" type="1" spreadType="center" shape="577.37,298.12 574.26,335.18 573.88,339.69">
        <lane id="21_0" index="0" speed="13.89" length="41.52" width="3.50" shape="580.86,298.41 577.75,335.47 577.38,339.79"/>
        <lane id="21_1" index="1" speed="13.89" length="41.52" width="3.50" shape="577.37,298.12 574.26,335.18 573.90,339.50"/>
        <lane id="21_2" index="2" speed="13.89" length="41.52" width="3.50" shape="573.88,297.83 570.77,334.89 570.41,339.20"/>
    </edge>
    <edge id="22" from="11" to="22-end" priority="-1" type="1" spreadType="center" shape="566.94,370.86 538.02,429.82">
        <lane id="22_0" index="0" speed="13.89" length="65.67" width="3.50" shape="568.51,371.63 539.59,430.59"/>
        <lane id="22_1" index="1" speed="13.89" length="65.67" width="3.50" shape="565.37,370.09 536.45,429.05"/>
    </edge>
    <edge id="23" from="12" to="11" priority="-1" type="1" spreadType="center" shape="636.96,386.97 578.08,365.20">
        <lane id="23_0" index="0" speed="13.89" length="63.03" width="3.50" shape="635.75,390.25 576.62,368.39"/>
        <lane id="23_1" index="1" speed="13.89" length="63.03" width="3.50" shape="636.96,386.97 577.84,365.11"/>
        <lane id="23_2" index="2" speed="13.89" length="63.03" width="3.50" shape="638.17,383.69 579.07,361.83"/>
    </edge>
    <edge id="24" from="11" to="12" priority="-1" type="1" spreadType="center" shape="582.41,352.91 642.09,375.25">
        <lane id="24_0" index="0" speed="13.89" length="62.98" width="3.50" shape="584.25,347.99 643.21,370.06"/>