<?xml version="1.0" encoding="UTF-8"?>

<!-- generated on 2022-05-17 15:47:20 by Eclipse SUMO jtrrouter Version 1.12.0
<configuration xmlns:xsi="http://www.w3.org/2001/XMLSchema-instance" xsi:noNamespaceSchemaLocation="http://sumo.dlr.de/xsd/jtrrouterConfiguration.xsd">

    <input>
        <net-file value="networks/marshall/marshall.net.xml"/>
        <route-files value="networks/marshall/marshall.flows.xml"/>
        <turn-ratio-files value="networks/marshall/marshall.turns.xml"/>
    </input>

    <output>
        <output-file value="networks/marshall/marshall_jtr_43.rou.xml"/>
    </output>

    <processing>
        <no-internal-links value="false"/>
        <randomize-flows value="true"/>
        <repair value="true"/>
        <accept-all-destinations value="true"/>
    </processing>

    <defaults>
        <departlane value="best"/>
    </defaults>

    <time>
        <begin value="0"/>
        <end value="3600"/>
    </time>

    <random_number>
        <seed value="43"/>
    </random_number>

</configuration>
-->

<routes xmlns:xsi="http://www.w3.org/2001/XMLSchema-instance" xsi:noNamespaceSchemaLocation="http://sumo.dlr.de/xsd/routes_file.xsd">
    <vehicle id="fl47_st0.0.0" depart="0.21" departLane="best" color="68,242,219">
        <route edges="47 45 42 41 23 22"/>
    </vehicle>
    <vehicle id="fl39_st0.0.0" depart="0.83" departLane="best" color="68,242,219">
        <route edges="39 37 23 19 18 17 15"/>
    </vehicle>
    <vehicle id="fl21_st0.0.0" depart="4.49" departLane="best" color="68,242,219">
        <route edges="21 24 40 46"/>
    </vehicle>
    <vehicle id="fl14_st0.0.0" depart="6.16" departLane="best" color="68,242,219">
        <route edges="14 13 10 11 9"/>
    </vehicle>
    <vehicle id="fl21_st0.0.1" depart="8.12" departLane="best" color="68,242,219">
        <route edges="21 24 40 46"/>
    </vehicle>
    <vehicle id="fl7_st0.0.0" depart="10.87" departLane="best" color="68,242,219">
        <route edges="7 4 3 16 20 24 40 46"/>
    </vehicle>
    <vehicle id="fl47_st0.0.1" depart="10.91" departLane="best" color="68,242,219">
        <route edges="47 45 42 41 23 19 18 17 13 10 11 9"/>
    </vehicle>
    <vehicle id="fl47_st0.0.2" depart="13.19" departLane="best" color="68,242,219">
        <route edges="47 45 42 41 23 19 18 17 15"/>
    </vehicle>
    <vehicle id="fl36_st0.0.0" depart="13.52" departLane="best" color="68,242,219">
        <route edges="36 34 26 27 23 19 18 17 15"/>
    </vehicle>
    <vehicle id="fl21_st0.0.2" depart="16.16" departLane="best" color="68,242,219">
        <route edges="21 24 40 46"/>
    </vehicle>
    <vehicle id="fl36_st0.0.1" depart="16.98" departLane="best" color="68,242,219">
        <route edges="36 34 33"/>
    </vehicle>
    <vehicle id="fl47_st0.0.3" depart="17.11" departLane="best" color="68,242,219">
        <route edges="47 45 42 41 23 19 18 17 13 10 11 9"/>
    </vehicle>
    <vehicle id="fl47_st0.0.4" depart="17.15" departLane="best" color="68,242,219">
        <route edges="47 45 42 41 23 22"/>
    </vehicle>
    <vehicle id="fl47_st0.0.5" depart="17.83" departLane="best" color="68,242,219">
        <route edges="47 45 42 41 23 19 18 17 15"/>
    </vehicle>
    <vehicle id="fl8_st0.0.0" depart="18.48" departLane="best" color="68,242,219">
        <route edges="8 2 3 16 20 24 40 46"/>
    </vehicle>
    <vehicle id="fl14_st0.0.1" depart="20.04" departLane="best" color="68,242,219">
        <route edges="14 16 20 24 40 46"/>
    </vehicle>
    <vehicle id="fl1_st0.0.0" depart="20.23" departLane="best" color="68,242,219">
        <route edges="1 6 3 16 20 24 25 28 30"/>
    </vehicle>
    <vehicle id="fl14_st0.0.2" depart="24.73" departLane="best" color="68,242,219">
        <route edges="14 16 20 24 38"/>
    </vehicle>
    <vehicle id="fl14_st0.0.3" depart="26.30" departLane="best" color="68,242,219">
        <route edges="14 15"/>
    </vehicle>
    <vehicle id="fl14_st0.0.4" depart="26.67" departLane="best" color="68,242,219">
        <route edges="14 16 20 24 40 46"/>
    </vehicle>
    <vehicle id="fl43_st0.0.0" depart="26.81" departLane="best" color="68,242,219">
        <route edges="43 42 41 23 19 18 17 15"/>
    </vehicle>
    <vehicle id="fl1_st0.0.1" depart="26.89" departLane="best" color="68,242,219">
        <route edges="1 6 3 16 20 24 25 28 30"/>
    </vehicle>
    <vehicle id="fl36_st0.0.2" depart="28.77" departLane="best" color="68,242,219">
        <route edges="36 34 26 27 40 46"/>
    </vehicle>
    <vehicle id="fl47_st0.0.6" depart="29.32" departLane="best" color="68,242,219">
        <route edges="47 45 42 41 23 22"/>
    </vehicle>
    <vehicle id="fl47_st0.0.7" depart="30.12" departLane="best" color="68,242,219">
        <route edges="47 45 42 41 23 22"/>
    </vehicle>
    <vehicle id="fl14_st0.0.5" depart="31.15" departLane="best" color="68,242,219">
        <route edges="14 16 20 24 40 46"/>
    </vehicle>
    <vehicle id="fl47_st0.0.8" depart="31.84" departLane="best" color="68,242,219">
        <route edges="47 45 42 41 23 19 18 17 15"/>
    </vehicle>
    <vehicle id="fl32_st0.0.0" depart="32.29" departLane="best" color="68,242,219">
        <route edges="32 31 35"/>
    </vehicle>
    <vehicle id="fl1_st0.0.2" depart="34.07" departLane="best" color="68,242,219">
        <route edges="1 6 3 16 20 22"/>
    </vehicle>
    <vehicle id="fl1_st0.0.3" depart="34.13" departLane="best" color="68,242,219">
        <route edges="1 6 3 16 20 22"/>
    </vehicle>
    <vehicle id="fl14_st0.0.6" depart="35.40" departLane="best" color="68,242,219">
        <route edges="14 16 20 24 40 46"/>
    </vehicle>
    <vehicle id="fl1_st0.0.4" depart="36.41" departLane="best" color="68,242,219">
        <route edges="1 6 3 15"/>
    </vehicle>
    <vehicle id="fl14_st0.0.7" depart="37.64" departLane="best" color="68,242,219">
        <route edges="14 13 10 11 48"/>
    </vehicle>
    <vehicle id="fl47_st0.0.9" depart="38.19" departLane="best" color="68,242,219">
        <route edges="47 45 42 41 23 19 18 17 13 10 11 9"/>
    </vehicle>
    <vehicle id="fl43_st0.0.1" depart="38.82" departLane="best" color="68,242,219">
        <route edges="43 46"/>
    </vehicle>
    <vehicle id="fl21_st0.0.3" depart="38.86" departLane="best" color="68,242,219">
        <route edges="21 19 18 17 15"/>
    </vehicle>
    <vehicle id="fl1_st0.0.5" depart="40.00" departLane="best" color="68,242,219">
        <route edges="1 6 3 16 20 24 38"/>
    </vehicle>
    <vehicle id="fl14_st0.0.8" depart="40.29" departLane="best" color="68,242,219">
        <route edges="14 16 20 24 40 46"/>
    </vehicle>
    <vehicle id="fl36_st0.0.3" depart="40.53" departLane="best" color="68,242,219">
        <route edges="36 34 33"/>
    </vehicle>
    <vehicle id="fl43_st0.0.2" depart="43.39" departLane="best" color="68,242,219">
        <route edges="43 42 41 23 19 18 17 15"/>
    </vehicle>
    <vehicle id="fl8_st0.0.1" depart="44.79" departLane="best" color="68,242,219">
        <route edges="8 2 3 16 20 22"/>
    </vehicle>
    <vehicle id="fl43_st0.0.3" depart="48.64" departLane="best" color="68,242,219">
        <route edges="43 46"/>
    </vehicle>
    <vehicle id="fl21_st0.0.4" depart="50.00" departLane="best" color="68,242,219">
        <route edges="21 24 25 28 33"/>
    </vehicle>
    <vehicle id="fl36_st0.0.4" depart="50.25" departLane="best" color="68,242,219">
        <route edges="36 34 26 27 23 19 18 17 13 10 11 9"/>
    </vehicle>
    <vehicle id="fl14_st0.0.9" depart="50.47" departLane="best" color="68,242,219">
        <route edges="14 16 20 24 38"/>
    </vehicle>
    <vehicle id="fl1_st0.0.6" depart="51.41" departLane="best" color="68,242,219">
        <route edges="1 6 3 16 20 24 25 28 33"/>
    </vehicle>
    <vehicle id="fl21_st0.0.5" depart="52.12" departLane="best" color="68,242,219">
        <route edges="21 24 25 28 35"/>
    </vehicle>
    <vehicle id="fl14_st0.0.10" depart="52.94" departLane="best" color="68,242,219">
        <route edges="14 13 10 11 9"/>
    </vehicle>
    <vehicle id="fl8_st0.0.2" depart="55.11" departLane="best" color="68,242,219">
        <route edges="8 2 3 16 20 24 40 46"/>
    </vehicle>
    <vehicle id="fl1_st0.0.7" depart="56.00" departLane="best" color="68,242,219">
        <route edges="1 6 3 16 20 24 40 46"/>
    </vehicle>
    <vehicle id="fl39_st0.0.1" depart="56.19" departLane="best" color="68,242,219">
        <route edges="39 37 40 46"/>
    </vehicle>
    <vehicle id="fl39_st0.0.2" depart="58.63" departLane="best" color="68,242,219">
        <route edges="39 37 40 46"/>
    </vehicle>
    <vehicle id="fl47_st0.0.10" depart="59.38" departLane="best" color="68,242,219">
        <route edges="47 45 42 41 23 19 18 17 13 10 12 50"/>
    </vehicle>
    <vehicle id="fl43_st0.0.4" depart="60.86" departLane="best" color="68,242,219">
        <route edges="43 42 41 23 22"/>
    </vehicle>
    <vehicle id="fl14_st0.0.11" depart="61.24" departLane="best" color="68,242,219">
        <route edges="14 16 20 24 40 46"/>
    </vehicle>
    <vehicle id="fl14_st0.0.12" depart="61.48" departLane="best" color="68,242,219">
        <route edges="14 16 20 24 38"/>
    </vehicle>
    <vehicle id="fl47_st0.0.11" depart="61.68" departLane="best" color="68,242,219">
        <route edges="47 45 42 41 25 28 35"/>
    </vehicle>
    <vehicle id="fl21_st0.0.6" depart="62.56" departLane="best" color="68,242,219">
        <route edges="21 24 40 46"/>
    </vehicle>
    <vehicle id="fl47_st0.0.12" depart="66.40" departLane="best" color="68,242,219">
        <route edges="47 45 44"/>
    </vehicle>
    <vehicle id="fl14_st0.0.13" depart="66.81" departLane="best" color="68,242,219">
        <route edges="14 16 20 24 25 28 35"/>
    </vehicle>
    <vehicle id="fl8_st0.0.3" depart="68.99" departLane="best" color="68,242,219">
        <route edges="8 2 3 16 20 24 40 46"/>
    </vehicle>
    <vehicle id="fl36_st0.0.5" depart="69.10" departLane="best" color="68,242,219">
        <route edges="36 34 26 27 40 46"/>
    </vehicle>
    <vehicle id="fl21_st0.0.7" depart="69.51" departLane="best" color="68,242,219">
        <route edges="21 24 40 46"/>
    </vehicle>
    <vehicle id="fl36_st0.0.6" depart="73.19" departLane="best" color="68,242,219">
        <route edges="36 34 26 27 40 46"/>
    </vehicle>
    <vehicle id="fl14_st0.0.14" depart="73.78" departLane="best" color="68,242,219">
        <route edges="14 13 10 11 9"/>
    </vehicle>
    <vehicle id="fl14_st0.0.15" depart="74.60" departLane="best" color="68,242,219">
        <route edges="14 16 20 22"/>
    </vehicle>
    <vehicle id="fl14_st0.0.16" depart="74.72" departLane="best" color="68,242,219">
        <route edges="14 16 20 24 40 46"/>
    </vehicle>
    <vehicle id="fl21_st0.0.8" depart="75.53" departLane="best" color="68,242,219">
        <route edges="21 24 40 46"/>
    </vehicle>
    <vehicle id="fl1_st0.0.8" depart="76.94" departLane="best" color="68,242,219">
        <route edges="1 6 3 16 20 24 40 46"/>
    </vehicle>
    <vehicle id="fl8_st0.0.4" depart="77.99" departLane="best" color="68,242,219">
        <route edges="8 2 3 16 20 24 40 46"/>
    </vehicle>
    <vehicle id="fl14_st0.0.17" depart="79.73" departLane="best" color="68,242,219">
        <route edges="14 15"/>
    </vehicle>
    <vehicle id="fl39_st0.0.3" depart="83.70" departLane="best" color="68,242,219">
        <route edges="39 37 23 19 18 17 13 10 11 9"/>
    </vehicle>
    <vehicle id="fl39_st0.0.4" depart="84.06" departLane="best" color="68,242,219">
        <route edges="39 37 40 46"/>
    </vehicle>
    <vehicle id="fl14_st0.0.18" depart="84.87" departLane="best" color="68,242,219">
        <route edges="14 13 10 11 48"/>
    </vehicle>
    <vehicle id="fl21_st0.0.9" depart="85.87" departLane="best" color="68,242,219">
        <route edges="21 24 40 46"/>
    </vehicle>
    <vehicle id="fl1_st0.0.9" depart="87.29" departLane="best" color="68,242,219">
        <route edges="1 6 3 16 20 24 40 46"/>
    </vehicle>
    <vehicle id="fl47_st0.0.13" depart="87.55" departLane="best" color="68,242,219">
        <route edges="47 45 44"/>
    </vehicle>
    <vehicle id="fl21_st0.0.10" depart="88.19" departLane="best" color="68,242,219">
        <route edges="21 24 25 28 35"/>
    </vehicle>
    <vehicle id="fl21_st0.0.11" depart="88.72" departLane="best" color="68,242,219">
        <route edges="21 24 40 46"/>
    </vehicle>
    <vehicle id="fl47_st0.0.14" depart="88.86" departLane="best" color="68,242,219">
        <route edges="47 45 42 41 23 22"/>
    </vehicle>
    <vehicle id="fl36_st0.0.7" depart="88.94" departLane="best" color="68,242,219">
        <route edges="36 34 26 27 38"/>
    </vehicle>
    <vehicle id="fl36_st0.0.8" depart="89.15" departLane="best" color="68,242,219">
        <route edges="36 34 26 27 40 46"/>
    </vehicle>
    <vehicle id="fl47_st0.0.15" depart="90.28" departLane="best" color="68,242,219">
        <route edges="47 45 42 41 25 28 30"/>
    </vehicle>
    <vehicle id="fl21_st0.0.12" depart="91.71" departLane="best" color="68,242,219">
        <route edges="21 19 18 17 15"/>
    </vehicle>
    <vehicle id="fl47_st0.0.16" depart="92.18" departLane="best" color="68,242,219">
        <route edges="47 45 42 41 23 19 18 17 15"/>
    </vehicle>
    <vehicle id="fl47_st0.0.17" depart="93.60" departLane="best" color="68,242,219">
        <route edges="47 45 42 41 38"/>
    </vehicle>
    <vehicle id="fl1_st0.0.10" depart="94.38" departLane="best" color="68,242,219">
        <route edges="1 6 3 15"/>
    </vehicle>
    <vehicle id="fl14_st0.0.19" depart="99.20" departLane="best" color="68,242,219">
        <route edges="14 13 10 11 9"/>
    </vehicle>
    <vehicle id="fl36_st0.0.9" depart="99.70" departLane="best" color="68,242,219">
        <route edges="36 34 26 27 23 22"/>
    </vehicle>
    <vehicle id="fl1_st0.0.11" depart="99.89" departLane="best" color="68,242,219">
        <route edges="1 6 3 16 20 24 40 46"/>
    </vehicle>
    <vehicle id="fl21_st0.0.13" depart="100.47" departLane="best" color="68,242,219">
        <route edges="21 24 25 28 35"/>
    </vehicle>
    <vehicle id="fl14_st0.0.20" depart="101.23" departLane="best" color="68,242,219">
        <route edges="14 16 20 24 40 46"/>
    </vehicle>
    <vehicle id="fl43_st0.0.5" depart="102.56" departLane="best" color="68,242,219">
        <route edges="43 42 41 23 19 18 17 13 10 11 9"/>
    </vehicle>
    <vehicle id="fl21_st0.0.14" depart="104.29" departLane="best" color="68,242,219">
        <route edges="21 24 25 28 35"/>
    </vehicle>
    <vehicle id="fl1_st0.0.12" depart="104.49" departLane="best" color="68,242,219">
        <route edges="1 6 3 16 20 22"/>
    </vehicle>
    <vehicle id="fl21_st0.0.15" depart="104.59" departLane="best" color="68,242,219">
        <route edges="21 24 25 28 35"/>
    </vehicle>
    <vehicle id="fl21_st0.0.16" depart="105.79" departLane="best" color="68,242,219">
        <route edges="21 24 25 28 33"/>
    </vehicle>
    <vehicle id="fl14_st0.0.21" depart="107.25" departLane="best" color="68,242,219">
        <route edges="14 16 20 22"/>
    </vehicle>
    <vehicle id="fl39_st0.0.5" depart="108.76" departLane="best" color="68,242,219">
        <route edges="39 37 25 28 35"/>
    </vehicle>
    <vehicle id="fl21_st0.0.17" depart="109.15" departLane="best" color="68,242,219">
        <route edges="21 24 40 46"/>
    </vehicle>
    <vehicle id="fl47_st0.0.18" depart="109.75" departLane="best" color="68,242,219">
        <route edges="47 45 42 41 23 19 18 17 13 10 11 9"/>
    </vehicle>
    <vehicle id="fl14_st0.0.22" depart="110.85" departLane="best" color="68,242,219">
        <route edges="14 15"/>
    </vehicle>
    <vehicle id="fl43_st0.0.6" depart="111.63" departLane="best" color="68,242,219">
        <route edges="43 46"/>
    </vehicle>
    <vehicle id="fl36_st0.0.10" depart="112.76" departLane="best" color="68,242,219">
        <route edges="36 34 26 27 23 19 18 17 13 10 11 48"/>
    </vehicle>
    <vehicle id="fl1_st0.0.13" depart="113.12" departLane="best" color="68,242,219">
        <route edges="1 6 3 15"/>
    </vehicle>
    <vehicle id="fl29_st0.0.0" depart="113.44" departLane="best" color="68,242,219">
        <route edges="29 35"/>
    </vehicle>
    <vehicle id="fl8_st0.0.5" depart="113.46" departLane="best" color="68,242,219">
        <route edges="8 2 49 50"/>
    </vehicle>
    <vehicle id="fl36_st0.0.11" depart="113.86" departLane="best" color="68,242,219">
        <route edges="36 34 26 27 23 19 18 17 13 10 11 9"/>
    </vehicle>
    <vehicle id="fl21_st0.0.18" depart="114.62" departLane="best" color="68,242,219">
        <route edges="21 24 40 46"/>
    </vehicle>
    <vehicle id="fl47_st0.0.19" depart="114.66" departLane="best" color="68,242,219">
        <route edges="47 45 42 41 23 19 18 17 13 10 11 48"/>
    </vehicle>
    <vehicle id="fl1_st0.0.14" depart="114.82" departLane="best" color="68,242,219">
        <route edges="1 6 3 16 20 24 40 46"/>
    </vehicle>
    <vehicle id="fl14_st0.0.23" depart="116.21" departLane="best" color="68,242,219">
        <route edges="14 16 20 22"/>
    </vehicle>
    <vehicle id="fl8_st0.0.6" depart="116.64" departLane="best" color="68,242,219">
        <route edges="8 2 3 16 20 22"/>
    </vehicle>
    <vehicle id="fl1_st0.0.15" depart="117.72" departLane="best" color="68,242,219">
        <route edges="1 6 3 16 20 22"/>
    </vehicle>
    <vehicle id="fl43_st0.0.7" depart="118.17" departLane="best" color="68,242,219">
        <route edges="43 42 41 23 22"/>
    </vehicle>
    <vehicle id="fl39_st0.0.6" depart="118.85" departLane="best" color="68,242,219">
        <route edges="39 37 40 46"/>
    </vehicle>
    <vehicle id="fl47_st0.0.20" depart="119.70" departLane="best" color="68,242,219">
        <route edges="47 45 44"/>
    </vehicle>
    <vehicle id="fl43_st0.0.8" depart="119.92" departLane="best" color="68,242,219">
        <route edges="43 42 41 23 19 18 17 15"/>
    </vehicle>
    <vehicle id="fl7_st0.0.1" depart="120.97" departLane="best" color="68,242,219">
        <route edges="7 4 3 16 20 24 25 28 33"/>
    </vehicle>
    <vehicle id="fl36_st0.0.12" depart="121.76" departLane="best" color="68,242,219">
        <route edges="36 34 30"/>
    </vehicle>
    <vehicle id="fl21_st0.0.19" depart="122.15" departLane="best" color="68,242,219">
        <route edges="21 24 25 28 35"/>
    </vehicle>
    <vehicle id="fl21_st0.0.20" depart="123.11" departLane="best" color="68,242,219">
        <route edges="21 24 40 46"/>
    </vehicle>
    <vehicle id="fl1_st0.0.16" depart="124.49" departLane="best" color="68,242,219">
        <route edges="1 6 3 16 20 24 40 46"/>
    </vehicle>
    <vehicle id="fl29_st0.0.1" depart="124.80" departLane="best" color="68,242,219">
        <route edges="29 26 27 23 19 18 17 13 10 11 9"/>
    </vehicle>
    <vehicle id="fl7_st0.0.2" depart="125.59" departLane="best" color="68,242,219">
        <route edges="7 4 3 16 20 22"/>
    </vehicle>
    <vehicle id="fl21_st0.0.21" depart="127.45" departLane="best" color="68,242,219">
        <route edges="21 24 40 46"/>
    </vehicle>
    <vehicle id="fl39_st0.0.7" depart="128.20" departLane="best" color="68,242,219">
        <route edges="39 37 40 46"/>
    </vehicle>
    <vehicle id="fl14_st0.0.24" depart="128.81" departLane="best" color="68,242,219">
        <route edges="14 16 20 24 40 46"/>
    </vehicle>
    <vehicle id="fl47_st0.0.21" depart="128.99" departLane="best" color="68,242,219">
        <route edges="47 45 42 41 23 19 18 17 15"/>
    </vehicle>
    <vehicle id="fl47_st0.0.22" depart="130.04" departLane="best" color="68,242,219">
        <route edges="47 45 42 41 23 19 18 17 15"/>
    </vehicle>
    <vehicle id="fl14_st0.0.25" depart="130.14" departLane="best" color="68,242,219">
        <route edges="14 16 20 24 40 46"/>
    </vehicle>
    <vehicle id="fl43_st0.0.9" depart="130.69" departLane="best" color="68,242,219">
        <route edges="43 42 41 23 19 18 17 13 10 12 50"/>
    </vehicle>
    <vehicle id="fl14_st0.0.26" depart="132.14" departLane="best" color="68,242,219">
        <route edges="14 13 10 12 50"/>
    </vehicle>
    <vehicle id="fl21_st0.0.22" depart="132.49" departLane="best" color="68,242,219">
        <route edges="21 24 40 46"/>
    </vehicle>
    <vehicle id="fl39_st0.0.8" depart="133.21" departLane="best" color="68,242,219">
        <route edges="39 37 23 22"/>
    </vehicle>
    <vehicle id="fl14_st0.0.27" depart="134.51" departLane="best" color="68,242,219">
        <route edges="14 13 10 11 9"/>
    </vehicle>
    <vehicle id="fl47_st0.0.23" depart="134.52" departLane="best" color="68,242,219">
        <route edges="47 45 42 41 23 22"/>
    </vehicle>
    <vehicle id="fl14_st0.0.28" depart="134.65" departLane="best" color="68,242,219">
        <route edges="14 16 20 24 40 46"/>
    </vehicle>
    <vehicle id="fl14_st0.0.29" depart="134.87" departLane="best" color="68,242,219">
        <route edges="14 13 10 11 48"/>
    </vehicle>
    <vehicle id="fl47_st0.0.24" depart="134.90" departLane="best" color="68,242,219">
        <route edges="47 45 42 41 23 22"/>
    </vehicle>
    <vehicle id="fl14_st0.0.30" depart="134.95" departLane="best" color="68,242,219">
        <route edges="14 16 20 22"/>
    </vehicle>
    <vehicle id="fl47_st0.0.25" depart="139.82" departLane="best" color="68,242,219">
        <route edges="47 45 42 41 23 19 18 17 15"/>
    </vehicle>
    <vehicle id="fl39_st0.0.9" depart="139.94" departLane="best" color="68,242,219">
        <route edges="39 37 23 19 18 17 15"/>
    </vehicle>
    <vehicle id="fl32_st0.0.1" depart="140.43" departLane="best" color="68,242,219">
        <route edges="32 31 35"/>
    </vehicle>
    <vehicle id="fl32_st0.0.2" depart="141.30" departLane="best" color="68,242,219">
        <route edges="32 31 26 27 38"/>
    </vehicle>
    <vehicle id="fl32_st0.0.3" depart="142.72" departLane="best" color="68,242,219">
        <route edges="32 31 26 27 40 46"/>
    </vehicle>
    <vehicle id="fl36_st0.0.13" depart="142.77" departLane="best" color="68,242,219">
        <route edges="36 34 26 27 40 46"/>
    </vehicle>
    <vehicle id="fl14_st0.0.31" depart="144.59" departLane="best" color="68,242,219">
        <route edges="14 16 20 24 25 28 35"/>
    </vehicle>
    <vehicle id="fl14_st0.0.32" depart="146.11" departLane="best" color="68,242,219">
        <route edges="14 16 20 24 40 46"/>
    </vehicle>
    <vehicle id="fl14_st0.0.33" depart="148.10" departLane="best" color="68,242,219">
        <route edges="14 16 20 24 40 46"/>
    </vehicle>
    <vehicle id="fl32_st0.0.4" depart="149.39" departLane="best" color="68,242,219">
        <route edges="32 31 35"/>
    </vehicle>
    <vehicle id="fl1_st0.0.17" depart="149.54" departLane="best" color="68,242,219">
        <route edges="1 6 3 16 20 24 25 28 35"/>
    </vehicle>
    <vehicle id="fl43_st0.0.10" depart="150.67" departLane="best" color="68,242,219">
        <route edges="43 42 41 23 19 18 17 13 10 11 9"/>
    </vehicle>
    <vehicle id="fl43_st0.0.11" depart="150.84" departLane="best" color="68,242,219">
        <route edges="43 42 41 23 19 18 17 15"/>
    </vehicle>
    <vehicle id="fl21_st0.0.23" depart="153.59" departLane="best" color="68,242,219">
        <route edges="21 19 18 17 13 10 11 48"/>
    </vehicle>
    <vehicle id="fl21_st0.0.24" depart="155.01" departLane="best" color="68,242,219">
        <route edges="21 24 25 28 33"/>
    </vehicle>
    <vehicle id="fl32_st0.0.5" depart="157.69" departLane="best" color="68,242,219">
        <route edges="32 31 30"/>
    </vehicle>
    <vehicle id="fl47_st0.0.26" depart="159.85" departLane="best" color="68,242,219">
        <route edges="47 45 44"/>
    </vehicle>
    <vehicle id="fl36_st0.0.14" depart="159.89" departLane="best" color="68,242,219">
        <route edges="36 34 26 27 23 19 18 17 13 10 11 9"/>
    </vehicle>
    <vehicle id="fl14_st0.0.34" depart="163.59" departLane="best" color="68,242,219">
        <route edges="14 16 20 22"/>
    </vehicle>
    <vehicle id="fl1_st0.0.18" depart="163.87" departLane="best" color="68,242,219">
        <route edges="1 6 3 15"/>
    </vehicle>
    <vehicle id="fl47_st0.0.27" depart="165.08" departLane="best" color="68,242,219">
        <route edges="47 45 42 41 23 22"/>
    </vehicle>
    <vehicle id="fl1_st0.0.19" depart="167.28" departLane="best" color="68,242,219">
        <route edges="1 6 3 16 20 24 25 28 35"/>
    </vehicle>
    <vehicle id="fl14_st0.0.35" depart="167.38" departLane="best" color="68,242,219">
        <route edges="14 16 20 22"/>
    </vehicle>
    <vehicle id="fl1_st0.0.20" depart="169.03" departLane="best" color="68,242,219">
        <route edges="1 6 3 16 20 24 25 28 35"/>
    </vehicle>
    <vehicle id="fl21_st0.0.25" depart="169.25" departLane="best" color="68,242,219">
        <route edges="21 24 40 46"/>
    </vehicle>
    <vehicle id="fl21_st0.0.26" depart="169.30" departLane="best" color="68,242,219">
        <route edges="21 24 40 46"/>
    </vehicle>
    <vehicle id="fl47_st0.0.28" depart="170.73" departLane="best" color="68,242,219">
        <route edges="47 45 42 41 23 19 18 17 15"/>
    </vehicle>
    <vehicle id="fl21_st0.0.27" depart="170.89" departLane="best" color="68,242,219">
        <route edges="21 24 25 28 35"/>
    </vehicle>
    <vehicle id="fl8_st0.0.7" depart="171.38" departLane="best" color="68,242,219">
        <route edges="8 2 3 16 20 24 25 28 35"/>
    </vehicle>
    <vehicle id="fl36_st0.0.15" depart="173.63" departLane="best" color="68,242,219">
        <route edges="36 34 26 27 23 19 18 17 15"/>
    </vehicle>
    <vehicle id="fl36_st0.0.16" depart="173.75" departLane="best" color="68,242,219">
        <route edges="36 34 26 27 38"/>
    </vehicle>
    <vehicle id="fl32_st0.0.6" depart="174.12" departLane="best" color="68,242,219">
        <route edges="32 31 30"/>
    </vehicle>
    <vehicle id="fl47_st0.0.29" depart="174.14" departLane="best" color="68,242,219">
        <route edges="47 45 42 41 23 19 18 17 13 10 11 9"/>
    </vehicle>
    <vehicle id="fl39_st0.0.10" depart="175.74" departLane="best" color="68,242,219">
        <route edges="39 37 23 19 18 17 13 10 11 9"/>
    </vehicle>
    <vehicle id="fl21_st0.0.28" depart="180.66" departLane="best" color="68,242,219">
        <route edges="21 24 40 46"/>
    </vehicle>
    <vehicle id="fl14_st0.0.36" depart="181.69" departLane="best" color="68,242,219">
        <route edges="14 16 20 24 25 28 35"/>
    </vehicle>
    <vehicle id="fl1_st0.0.21" depart="182.61" departLane="best" color="68,242,219">
        <route edges="1 6 3 16 20 22"/>
    </vehicle>
    <vehicle id="fl14_st0.0.37" depart="182.62" departLane="best" color="68,242,219">
        <route edges="14 16 20 24 40 46"/>
    </vehicle>
    <vehicle id="fl47_st0.0.30" depart="187.29" departLane="best" color="68,242,219">
        <route edges="47 45 42 41 38"/>
    </vehicle>
    <vehicle id="fl8_st0.0.8" depart="188.50" departLane="best" color="68,242,219">
        <route edges="8 2 3 16 20 22"/>
    </vehicle>
    <vehicle id="fl21_st0.0.29" depart="188.76" departLane="best" color="68,242,219">
        <route edges="21 24 40 46"/>
    </vehicle>
    <vehicle id="fl39_st0.0.11" depart="188.76" departLane="best" color="68,242,219">
        <route edges="39 37 40 46"/>
    </vehicle>
    <vehicle id="fl47_st0.0.31" depart="189.37" departLane="best" color="68,242,219">
        <route edges="47 45 42 41 23 19 18 17 15"/>
    </vehicle>
    <vehicle id="fl47_st0.0.32" depart="190.70" departLane="best" color="68,242,219">
        <route edges="47 45 42 41 23 19 18 17 13 10 11 9"/>
    </vehicle>
    <vehicle id="fl47_st0.0.33" depart="190.96" departLane="best" color="68,242,219">
        <route edges="47 45 42 41 23 19 18 17 13 10 11 48"/>
    </vehicle>
    <vehicle id="fl47_st0.0.34" depart="191.09" departLane="best" color="68,242,219">
        <route edges="47 45 42 41 23 19 18 17 13 10 11 9"/>
    </vehicle>
    <vehicle id="fl14_st0.0.38" depart="191.47" departLane="best" color="68,242,219">
        <route edges="14 16 20 24 40 46"/>
    </vehicle>
    <vehicle id="fl1_st0.0.22" depart="192.00" departLane="best" color="68,242,219">
        <route edges="1 6 3 16 20 24 25 28 35"/>
    </vehicle>
    <vehicle id="fl36_st0.0.17" depart="195.01" departLane="best" color="68,242,219">
        <route edges="36 34 30"/>
    </vehicle>
    <vehicle id="fl7_st0.0.3" depart="195.98" departLane="best" color="68,242,219">
        <route edges="7 4 3 16 20 22"/>
    </vehicle>
    <vehicle id="fl21_st0.0.30" depart="196.82" departLane="best" color="68,242,219">
        <route edges="21 24 40 46"/>
    </vehicle>
    <vehicle id="fl47_st0.0.35" depart="196.94" departLane="best" color="68,242,219">
        <route edges="47 45 44"/>
    </vehicle>
    <vehicle id="fl14_st0.0.39" depart="198.67" departLane="best" color="68,242,219">
        <route edges="14 13 10 11 9"/>
    </vehicle>
    <vehicle id="fl21_st0.0.31" depart="199.02" departLane="best" color="68,242,219">
        <route edges="21 22"/>
    </vehicle>
    <vehicle id="fl36_st0.0.18" depart="199.15" departLane="best" color="68,242,219">
        <route edges="36 34 26 27 23 22"/>
    </vehicle>
    <vehicle id="fl21_st0.0.32" depart="202.42" departLane="best" color="68,242,219">
        <route edges="21 24 40 46"/>
    </vehicle>
    <vehicle id="fl43_st0.0.12" depart="203.23" departLane="best" color="68,242,219">
        <route edges="43 46"/>
    </vehicle>
    <vehicle id="fl1_st0.0.23" depart="203.31" departLane="best" color="68,242,219">
        <route edges="1 6 3 16 20 22"/>
    </vehicle>
    <vehicle id="fl14_st0.0.40" depart="204.15" departLane="best" color="68,242,219">
        <route edges="14 13 10 11 48"/>
    </vehicle>
    <vehicle id="fl39_st0.0.12" depart="204.18" departLane="best" color="68,242,219">
        <route edges="39 37 23 19 18 17 15"/>
    </vehicle>
    <vehicle id="fl47_st0.0.36" depart="205.48" departLane="best" color="68,242,219">
        <route edges="47 45 42 41 23 19 18 17 13 10 11 48"/>