<?xml version="1.0" encoding="UTF-8"?>

<!-- generated on 2022-04-20 10:51:24 by Eclipse SUMO jtrrouter Version 1.12.0
<configuration xmlns:xsi="http://www.w3.org/2001/XMLSchema-instance" xsi:noNamespaceSchemaLocation="http://sumo.dlr.de/xsd/jtrrouterConfiguration.xsd">

    <input>
        <net-file value="networks/marshall/marshall.net.xml"/>
        <route-files value="networks/marshall/marshall.flows.xml"/>
        <turn-ratio-files value="networks/marshall/marshall.turns.xml"/>
    </input>

    <output>
        <output-file value="networks/marshall/marshall_jtr.rou.xml"/>
    </output>

    <processing>
        <no-internal-links value="false"/>
        <randomize-flows value="true"/>
        <repair value="true"/>
        <accept-all-destinations value="true"/>
    </processing>

    <defaults>
        <departlane value="best"/>
    </defaults>

    <time>
        <begin value="0"/>
        <end value="3600"/>
    </time>

    <random_number>
        <seed value="42"/>
    </random_number>

</configuration>
-->

<routes xmlns:xsi="http://www.w3.org/2001/XMLSchema-instance" xsi:noNamespaceSchemaLocation="http://sumo.dlr.de/xsd/routes_file.xsd">
    <vehicle id="fl14_st0.0.0" depart="0.13" departLane="best" color="68,242,219">
        <route edges="14 13 10 11 9"/>
    </vehicle>
    <vehicle id="fl14_st0.0.1" depart="0.40" departLane="best" color="68,242,219">
        <route edges="14 13 10 11 9"/>
    </vehicle>
    <vehicle id="fl1_st0.0.0" depart="3.05" departLane="best" color="68,242,219">
        <route edges="1 6 3 16 20 24 40 46"/>
    </vehicle>
    <vehicle id="fl1_st0.0.1" depart="3.27" departLane="best" color="68,242,219">
        <route edges="1 6 3 16 20 24 40 46"/>
    </vehicle>
    <vehicle id="fl14_st0.0.2" depart="5.29" departLane="best" color="68,242,219">
        <route edges="14 16 20 24 25 28 35"/>
    </vehicle>
    <vehicle id="fl1_st0.0.2" depart="5.49" departLane="best" color="68,242,219">
        <route edges="1 6 3 16 20 24 25 28 35"/>
    </vehicle>
    <vehicle id="fl14_st0.0.3" depart="6.95" departLane="best" color="68,242,219">
        <route edges="14 13 10 11 9"/>
    </vehicle>
    <vehicle id="fl43_st0.0.0" depart="7.97" departLane="best" color="68,242,219">
        <route edges="43 42 41 23 19 18 17 15"/>
    </vehicle>
    <vehicle id="fl1_st0.0.3" depart="9.44" departLane="best" color="68,242,219">
        <route edges="1 6 3 16 20 22"/>
    </vehicle>
    <vehicle id="fl36_st0.0.0" depart="10.70" departLane="best" color="68,242,219">
        <route edges="36 34 26 27 23 19 18 17 13 10 11 9"/>
    </vehicle>
    <vehicle id="fl21_st0.0.0" depart="11.30" departLane="best" color="68,242,219">
        <route edges="21 24 40 46"/>
    </vehicle>
    <vehicle id="fl36_st0.0.1" depart="12.12" departLane="best" color="68,242,219">
        <route edges="36 34 26 27 23 19 18 17 15"/>
    </vehicle>
    <vehicle id="fl43_st0.0.1" depart="18.07" departLane="best" color="68,242,219">
        <route edges="43 46"/>
    </vehicle>
    <vehicle id="fl47_st0.0.0" depart="19.68" departLane="best" color="68,242,219">
        <route edges="47 45 42 41 23 19 18 17 13 10 11 48"/>
    </vehicle>
    <vehicle id="fl21_st0.0.1" depart="19.82" departLane="best" color="68,242,219">
        <route edges="21 24 38"/>
    </vehicle>
    <vehicle id="fl32_st0.0.0" depart="19.98" departLane="best" color="68,242,219">
        <route edges="32 31 26 27 23 22"/>
    </vehicle>
    <vehicle id="fl47_st0.0.1" depart="21.25" departLane="best" color="68,242,219">
        <route edges="47 45 42 41 23 19 18 17 15"/>
    </vehicle>
    <vehicle id="fl8_st0.0.0" depart="21.96" departLane="best" color="68,242,219">
        <route edges="8 2 49 50"/>
    </vehicle>
    <vehicle id="fl39_st0.0.0" depart="22.43" departLane="best" color="68,242,219">
        <route edges="39 37 23 22"/>
    </vehicle>
    <vehicle id="fl8_st0.0.1" depart="23.25" departLane="best" color="68,242,219">
        <route edges="8 2 3 16 20 24 40 46"/>
    </vehicle>
    <vehicle id="fl14_st0.0.4" depart="23.28" departLane="best" color="68,242,219">
        <route edges="14 16 20 22"/>
    </vehicle>
    <vehicle id="fl43_st0.0.2" depart="23.43" departLane="best" color="68,242,219">
        <route edges="43 46"/>
    </vehicle>
    <vehicle id="fl29_st0.0.0" depart="26.16" departLane="best" color="68,242,219">
        <route edges="29 35"/>
    </vehicle>
    <vehicle id="fl14_st0.0.5" depart="26.73" departLane="best" color="68,242,219">
        <route edges="14 16 20 24 25 28 35"/>
    </vehicle>
    <vehicle id="fl14_st0.0.6" depart="26.79" departLane="best" color="68,242,219">
        <route edges="14 16 20 24 40 46"/>
    </vehicle>
    <vehicle id="fl47_st0.0.2" depart="26.81" departLane="best" color="68,242,219">
        <route edges="47 45 42 41 23 19 18 17 13 10 11 48"/>
    </vehicle>
    <vehicle id="fl14_st0.0.7" depart="27.71" departLane="best" color="68,242,219">
        <route edges="14 16 20 24 25 28 35"/>
    </vehicle>
    <vehicle id="fl36_st0.0.2" depart="28.63" departLane="best" color="68,242,219">
        <route edges="36 34 26 27 23 22"/>
    </vehicle>
    <vehicle id="fl47_st0.0.3" depart="29.73" departLane="best" color="68,242,219">
        <route edges="47 45 42 41 23 22"/>
    </vehicle>
    <vehicle id="fl32_st0.0.1" depart="31.59" departLane="best" color="68,242,219">
        <route edges="32 31 35"/>
    </vehicle>
    <vehicle id="fl47_st0.0.4" depart="31.85" departLane="best" color="68,242,219">
        <route edges="47 45 42 41 23 19 18 17 13 10 11 9"/>
    </vehicle>
    <vehicle id="fl39_st0.0.1" depart="33.32" departLane="best" color="68,242,219">
        <route edges="39 37 40 46"/>
    </vehicle>
    <vehicle id="fl47_st0.0.5" depart="33.69" departLane="best" color="68,242,219">
        <route edges="47 45 42 41 23 19 18 17 15"/>
    </vehicle>
    <vehicle id="fl21_st0.0.2" depart="34.70" departLane="best" color="68,242,219">
        <route edges="21 24 40 46"/>
    </vehicle>
    <vehicle id="fl29_st0.0.1" depart="34.71" departLane="best" color="68,242,219">
        <route edges="29 26 27 38"/>
    </vehicle>
    <vehicle id="fl21_st0.0.3" depart="34.91" departLane="best" color="68,242,219">
        <route edges="21 24 40 46"/>
    </vehicle>
    <vehicle id="fl21_st0.0.4" depart="35.95" departLane="best" color="68,242,219">
        <route edges="21 19 18 17 13 10 11 9"/>
    </vehicle>
    <vehicle id="fl43_st0.0.3" depart="36.04" departLane="best" color="68,242,219">
        <route edges="43 46"/>
    </vehicle>
    <vehicle id="fl36_st0.0.3" depart="36.32" departLane="best" color="68,242,219">
        <route edges="36 34 26 27 40 46"/>
    </vehicle>
    <vehicle id="fl1_st0.0.4" depart="38.10" departLane="best" color="68,242,219">
        <route edges="1 5 9"/>
    </vehicle>
    <vehicle id="fl47_st0.0.6" depart="39.28" departLane="best" color="68,242,219">
        <route edges="47 45 42 41 23 22"/>
    </vehicle>
    <vehicle id="fl8_st0.0.2" depart="39.35" departLane="best" color="68,242,219">
        <route edges="8 2 3 16 20 24 38"/>
    </vehicle>
    <vehicle id="fl21_st0.0.5" depart="40.74" departLane="best" color="68,242,219">
        <route edges="21 24 25 28 30"/>
    </vehicle>
    <vehicle id="fl8_st0.0.3" depart="43.59" departLane="best" color="68,242,219">
        <route edges="8 2 49 50"/>
    </vehicle>
    <vehicle id="fl47_st0.0.7" depart="45.23" departLane="best" color="68,242,219">
        <route edges="47 45 42 41 23 19 18 17 13 10 11 48"/>
    </vehicle>
    <vehicle id="fl21_st0.0.6" depart="47.06" departLane="best" color="68,242,219">
        <route edges="21 24 40 46"/>
    </vehicle>
    <vehicle id="fl21_st0.0.7" depart="48.87" departLane="best" color="68,242,219">
        <route edges="21 24 40 46"/>
    </vehicle>
    <vehicle id="fl8_st0.0.4" depart="48.98" departLane="best" color="68,242,219">
        <route edges="8 2 3 16 20 24 40 46"/>
    </vehicle>
    <vehicle id="fl36_st0.0.4" depart="49.10" departLane="best" color="68,242,219">
        <route edges="36 34 26 27 23 22"/>
    </vehicle>
    <vehicle id="fl1_st0.0.5" depart="49.12" departLane="best" color="68,242,219">
        <route edges="1 6 3 16 20 24 40 44"/>
    </vehicle>
    <vehicle id="fl39_st0.0.2" depart="50.86" departLane="best" color="68,242,219">
        <route edges="39 37 23 19 18 17 15"/>
    </vehicle>
    <vehicle id="fl21_st0.0.8" depart="51.23" departLane="best" color="68,242,219">
        <route edges="21 24 38"/>
    </vehicle>
    <vehicle id="fl14_st0.0.8" depart="51.75" departLane="best" color="68,242,219">
        <route edges="14 16 20 24 25 28 35"/>
    </vehicle>
    <vehicle id="fl1_st0.0.6" depart="51.93" departLane="best" color="68,242,219">
        <route edges="1 6 3 16 20 24 40 46"/>
    </vehicle>
    <vehicle id="fl14_st0.0.9" depart="52.53" departLane="best" color="68,242,219">
        <route edges="14 13 10 11 48"/>
    </vehicle>
    <vehicle id="fl1_st0.0.7" depart="55.61" departLane="best" color="68,242,219">
        <route edges="1 6 3 15"/>
    </vehicle>
    <vehicle id="fl36_st0.0.5" depart="59.18" departLane="best" color="68,242,219">
        <route edges="36 34 26 27 23 19 18 17 15"/>
    </vehicle>
    <vehicle id="fl43_st0.0.4" depart="60.55" departLane="best" color="68,242,219">
        <route edges="43 42 41 23 19 18 17 13 10 11 48"/>
    </vehicle>
    <vehicle id="fl8_st0.0.5" depart="61.09" departLane="best" color="68,242,219">
        <route edges="8 2 3 16 20 24 38"/>
    </vehicle>
    <vehicle id="fl29_st0.0.2" depart="61.37" departLane="best" color="68,242,219">
        <route edges="29 35"/>
    </vehicle>
    <vehicle id="fl1_st0.0.8" depart="61.48" departLane="best" color="68,242,219">
        <route edges="1 6 3 16 20 24 40 46"/>
    </vehicle>
    <vehicle id="fl43_st0.0.5" depart="63.04" departLane="best" color="68,242,219">
        <route edges="43 42 41 23 19 18 17 13 10 11 9"/>
    </vehicle>
    <vehicle id="fl36_st0.0.6" depart="63.65" departLane="best" color="68,242,219">
        <route edges="36 34 26 27 40 46"/>
    </vehicle>
    <vehicle id="fl14_st0.0.10" depart="64.32" departLane="best" color="68,242,219">
        <route edges="14 16 20 24 40 46"/>
    </vehicle>
    <vehicle id="fl8_st0.0.6" depart="65.32" departLane="best" color="68,242,219">
        <route edges="8 2 48"/>
    </vehicle>
    <vehicle id="fl8_st0.0.7" depart="65.73" departLane="best" color="68,242,219">
        <route edges="8 2 49 50"/>
    </vehicle>
    <vehicle id="fl1_st0.0.9" depart="65.95" departLane="best" color="68,242,219">
        <route edges="1 6 3 15"/>
    </vehicle>
    <vehicle id="fl21_st0.0.9" depart="66.15" departLane="best" color="68,242,219">
        <route edges="21 24 40 44"/>
    </vehicle>
    <vehicle id="fl14_st0.0.11" depart="66.20" departLane="best" color="68,242,219">
        <route edges="14 13 10 11 9"/>
    </vehicle>
    <vehicle id="fl1_st0.0.10" depart="66.23" departLane="best" color="68,242,219">
        <route edges="1 5 49 50"/>
    </vehicle>
    <vehicle id="fl21_st0.0.10" depart="67.64" departLane="best" color="68,242,219">
        <route edges="21 24 40 46"/>
    </vehicle>
    <vehicle id="fl14_st0.0.12" depart="67.66" departLane="best" color="68,242,219">
        <route edges="14 13 10 11 9"/>
    </vehicle>
    <vehicle id="fl8_st0.0.8" depart="68.15" departLane="best" color="68,242,219">
        <route edges="8 2 3 16 20 22"/>
    </vehicle>
    <vehicle id="fl47_st0.0.8" depart="68.92" departLane="best" color="68,242,219">
        <route edges="47 45 42 41 23 22"/>
    </vehicle>
    <vehicle id="fl47_st0.0.9" depart="70.12" departLane="best" color="68,242,219">
        <route edges="47 45 42 41 23 19 18 17 13 10 11 9"/>
    </vehicle>
    <vehicle id="fl14_st0.0.13" depart="70.39" departLane="best" color="68,242,219">
        <route edges="14 16 20 24 40 46"/>
    </vehicle>
    <vehicle id="fl1_st0.0.11" depart="70.64" departLane="best" color="68,242,219">
        <route edges="1 5 9"/>
    </vehicle>
    <vehicle id="fl7_st0.0.0" depart="71.30" departLane="best" color="68,242,219">
        <route edges="7 4 3 16 20 24 25 28 30"/>
    </vehicle>
    <vehicle id="fl47_st0.0.10" depart="74.00" departLane="best" color="68,242,219">
        <route edges="47 45 42 41 23 22"/>
    </vehicle>
    <vehicle id="fl1_st0.0.12" depart="74.46" departLane="best" color="68,242,219">
        <route edges="1 6 3 16 20 24 25 28 30"/>
    </vehicle>
    <vehicle id="fl36_st0.0.7" depart="75.39" departLane="best" color="68,242,219">
        <route edges="36 34 26 27 23 19 18 17 15"/>
    </vehicle>
    <vehicle id="fl8_st0.0.9" depart="75.77" departLane="best" color="68,242,219">
        <route edges="8 2 3 16 20 24 40 46"/>
    </vehicle>
    <vehicle id="fl14_st0.0.14" depart="76.08" departLane="best" color="68,242,219">
        <route edges="14 16 20 24 40 46"/>
    </vehicle>
    <vehicle id="fl21_st0.0.11" depart="76.22" departLane="best" color="68,242,219">
        <route edges="21 19 18 17 15"/>
    </vehicle>
    <vehicle id="fl21_st0.0.12" depart="76.90" departLane="best" color="68,242,219">
        <route edges="21 24 40 46"/>
    </vehicle>
    <vehicle id="fl1_st0.0.13" depart="78.78" departLane="best" color="68,242,219">
        <route edges="1 6 3 16 20 24 40 46"/>
    </vehicle>
    <vehicle id="fl39_st0.0.3" depart="79.08" departLane="best" color="68,242,219">
        <route edges="39 37 23 19 18 17 15"/>
    </vehicle>
    <vehicle id="fl36_st0.0.8" depart="79.14" departLane="best" color="68,242,219">
        <route edges="36 34 30"/>
    </vehicle>
    <vehicle id="fl36_st0.0.9" depart="79.97" departLane="best" color="68,242,219">
        <route edges="36 34 30"/>
    </vehicle>
    <vehicle id="fl47_st0.0.11" depart="80.26" departLane="best" color="68,242,219">
        <route edges="47 45 42 41 23 22"/>
    </vehicle>
    <vehicle id="fl14_st0.0.15" depart="81.26" departLane="best" color="68,242,219">
        <route edges="14 16 20 24 38"/>
    </vehicle>
    <vehicle id="fl47_st0.0.12" depart="84.08" departLane="best" color="68,242,219">
        <route edges="47 45 42 41 23 19 18 17 13 10 11 9"/>
    </vehicle>
    <vehicle id="fl8_st0.0.10" depart="84.65" departLane="best" color="68,242,219">
        <route edges="8 2 3 15"/>
    </vehicle>
    <vehicle id="fl36_st0.0.10" depart="86.37" departLane="best" color="68,242,219">
        <route edges="36 34 26 27 40 46"/>
    </vehicle>
    <vehicle id="fl43_st0.0.6" depart="87.47" departLane="best" color="68,242,219">
        <route edges="43 42 41 23 19 18 17 13 10 11 48"/>
    </vehicle>
    <vehicle id="fl21_st0.0.13" depart="87.96" departLane="best" color="68,242,219">
        <route edges="21 24 40 46"/>
    </vehicle>
    <vehicle id="fl21_st0.0.14" depart="90.09" departLane="best" color="68,242,219">
        <route edges="21 24 25 28 35"/>
    </vehicle>
    <vehicle id="fl47_st0.0.13" depart="91.01" departLane="best" color="68,242,219">
        <route edges="47 45 42 41 23 19 18 17 15"/>
    </vehicle>
    <vehicle id="fl14_st0.0.16" depart="91.87" departLane="best" color="68,242,219">
        <route edges="14 16 20 24 25 28 35"/>
    </vehicle>
    <vehicle id="fl14_st0.0.17" depart="92.19" departLane="best" color="68,242,219">
        <route edges="14 16 20 22"/>
    </vehicle>
    <vehicle id="fl29_st0.0.3" depart="92.32" departLane="best" color="68,242,219">
        <route edges="29 35"/>
    </vehicle>
    <vehicle id="fl47_st0.0.14" depart="92.60" departLane="best" color="68,242,219">
        <route edges="47 45 42 41 23 19 18 17 13 10 11 9"/>
    </vehicle>
    <vehicle id="fl36_st0.0.11" depart="94.02" departLane="best" color="68,242,219">
        <route edges="36 34 26 27 23 19 18 17 13 10 11 48"/>
    </vehicle>
    <vehicle id="fl39_st0.0.4" depart="98.82" departLane="best" color="68,242,219">
        <route edges="39 37 40 46"/>
    </vehicle>
    <vehicle id="fl1_st0.0.14" depart="100.24" departLane="best" color="68,242,219">
        <route edges="1 6 3 16 20 24 40 46"/>
    </vehicle>
    <vehicle id="fl39_st0.0.5" depart="100.73" departLane="best" color="68,242,219">
        <route edges="39 37 40 46"/>
    </vehicle>
    <vehicle id="fl36_st0.0.12" depart="101.38" departLane="best" color="68,242,219">
        <route edges="36 34 33"/>
    </vehicle>
    <vehicle id="fl8_st0.0.11" depart="103.36" departLane="best" color="68,242,219">
        <route edges="8 2 3 16 20 22"/>
    </vehicle>
    <vehicle id="fl47_st0.0.15" depart="104.20" departLane="best" color="68,242,219">
        <route edges="47 45 42 41 38"/>
    </vehicle>
    <vehicle id="fl43_st0.0.7" depart="104.21" departLane="best" color="68,242,219">
        <route edges="43 42 41 23 22"/>
    </vehicle>
    <vehicle id="fl47_st0.0.16" depart="104.56" departLane="best" color="68,242,219">
        <route edges="47 45 42 41 23 19 18 17 13 10 11 9"/>
    </vehicle>
    <vehicle id="fl21_st0.0.15" depart="105.23" departLane="best" color="68,242,219">
        <route edges="21 24 25 28 33"/>
    </vehicle>
    <vehicle id="fl8_st0.0.12" depart="106.08" departLane="best" color="68,242,219">
        <route edges="8 2 3 16 20 24 38"/>
    </vehicle>
    <vehicle id="fl1_st0.0.15" depart="107.45" departLane="best" color="68,242,219">
        <route edges="1 6 3 16 20 24 40 46"/>
    </vehicle>
    <vehicle id="fl1_st0.0.16" depart="108.94" departLane="best" color="68,242,219">
        <route edges="1 6 3 16 20 22"/>
    </vehicle>
    <vehicle id="fl8_st0.0.13" depart="109.56" departLane="best" color="68,242,219">
        <route edges="8 2 3 16 20 24 40 46"/>
    </vehicle>
    <vehicle id="fl8_st0.0.14" depart="110.08" departLane="best" color="68,242,219">
        <route edges="8 2 48"/>
    </vehicle>
    <vehicle id="fl8_st0.0.15" depart="110.27" departLane="best" color="68,242,219">
        <route edges="8 2 3 16 20 24 38"/>
    </vehicle>
    <vehicle id="fl14_st0.0.18" depart="112.82" departLane="best" color="68,242,219">
        <route edges="14 16 20 24 40 46"/>
    </vehicle>
    <vehicle id="fl47_st0.0.17" depart="112.99" departLane="best" color="68,242,219">
        <route edges="47 45 42 41 23 22"/>
    </vehicle>
    <vehicle id="fl1_st0.0.17" depart="115.29" departLane="best" color="68,242,219">
        <route edges="1 6 3 16 20 24 25 28 35"/>
    </vehicle>
    <vehicle id="fl47_st0.0.18" depart="115.36" departLane="best" color="68,242,219">
        <route edges="47 45 42 41 23 19 18 17 13 10 11 9"/>
    </vehicle>
    <vehicle id="fl1_st0.0.18" depart="116.38" departLane="best" color="68,242,219">
        <route edges="1 6 3 15"/>
    </vehicle>
    <vehicle id="fl36_st0.0.13" depart="116.49" departLane="best" color="68,242,219">
        <route edges="36 34 26 27 23 22"/>
    </vehicle>
    <vehicle id="fl21_st0.0.16" depart="116.74" departLane="best" color="68,242,219">
        <route edges="21 19 18 17 13 10 11 9"/>
    </vehicle>
    <vehicle id="fl7_st0.0.1" depart="117.80" departLane="best" color="68,242,219">
        <route edges="7 4 3 16 20 24 40 46"/>
    </vehicle>
    <vehicle id="fl14_st0.0.19" depart="118.03" departLane="best" color="68,242,219">
        <route edges="14 15"/>
    </vehicle>
    <vehicle id="fl36_st0.0.14" depart="118.41" departLane="best" color="68,242,219">
        <route edges="36 34 26 27 23 19 18 17 13 10 11 9"/>
    </vehicle>
    <vehicle id="fl1_st0.0.19" depart="118.83" departLane="best" color="68,242,219">
        <route edges="1 6 3 16 20 24 40 46"/>
    </vehicle>
    <vehicle id="fl14_st0.0.20" depart="122.40" departLane="best" color="68,242,219">
        <route edges="14 16 20 24 40 46"/>
    </vehicle>
    <vehicle id="fl8_st0.0.16" depart="122.41" departLane="best" color="68,242,219">
        <route edges="8 2 3 16 20 24 40 46"/>
    </vehicle>
    <vehicle id="fl21_st0.0.17" depart="122.74" departLane="best" color="68,242,219">
        <route edges="21 24 40 46"/>
    </vehicle>
    <vehicle id="fl47_st0.0.19" depart="122.78" departLane="best" color="68,242,219">
        <route edges="47 45 42 41 23 19 18 17 15"/>
    </vehicle>
    <vehicle id="fl47_st0.0.20" depart="123.26" departLane="best" color="68,242,219">
        <route edges="47 45 42 41 23 19 18 17 13 10 11 48"/>
    </vehicle>
    <vehicle id="fl21_st0.0.18" depart="123.62" departLane="best" color="68,242,219">
        <route edges="21 24 40 44"/>
    </vehicle>
    <vehicle id="fl1_st0.0.20" depart="124.12" departLane="best" color="68,242,219">
        <route edges="1 6 3 16 20 22"/>
    </vehicle>
    <vehicle id="fl14_st0.0.21" depart="125.89" departLane="best" color="68,242,219">
        <route edges="14 16 20 24 40 46"/>
    </vehicle>
    <vehicle id="fl21_st0.0.19" depart="125.99" departLane="best" color="68,242,219">
        <route edges="21 24 25 28 33"/>
    </vehicle>
    <vehicle id="fl14_st0.0.22" depart="126.11" departLane="best" color="68,242,219">
        <route edges="14 16 20 24 25 28 30"/>
    </vehicle>
    <vehicle id="fl8_st0.0.17" depart="127.95" departLane="best" color="68,242,219">
        <route edges="8 2 49 50"/>
    </vehicle>
    <vehicle id="fl21_st0.0.20" depart="128.32" departLane="best" color="68,242,219">
        <route edges="21 19 18 17 13 10 12 50"/>
    </vehicle>
    <vehicle id="fl1_st0.0.21" depart="128.39" departLane="best" color="68,242,219">
        <route edges="1 6 3 15"/>
    </vehicle>
    <vehicle id="fl47_st0.0.21" depart="129.35" departLane="best" color="68,242,219">
        <route edges="47 45 42 41 23 22"/>
    </vehicle>
    <vehicle id="fl1_st0.0.22" depart="131.37" departLane="best" color="68,242,219">
        <route edges="1 6 3 15"/>
    </vehicle>
    <vehicle id="fl14_st0.0.23" depart="132.72" departLane="best" color="68,242,219">
        <route edges="14 13 10 11 9"/>
    </vehicle>
    <vehicle id="fl1_st0.0.23" depart="133.27" departLane="best" color="68,242,219">
        <route edges="1 6 3 16 20 24 40 46"/>
    </vehicle>
    <vehicle id="fl14_st0.0.24" depart="133.52" departLane="best" color="68,242,219">
        <route edges="14 16 20 22"/>
    </vehicle>
    <vehicle id="fl21_st0.0.21" depart="133.55" departLane="best" color="68,242,219">
        <route edges="21 19 18 17 15"/>
    </vehicle>
    <vehicle id="fl21_st0.0.22" depart="134.06" departLane="best" color="68,242,219">
        <route edges="21 19 18 17 15"/>
    </vehicle>
    <vehicle id="fl14_st0.0.25" depart="135.23" departLane="best" color="68,242,219">
        <route edges="14 16 20 22"/>
    </vehicle>
    <vehicle id="fl8_st0.0.18" depart="136.33" departLane="best" color="68,242,219">
        <route edges="8 2 3 16 20 24 40 46"/>
    </vehicle>
    <vehicle id="fl14_st0.0.26" depart="137.02" departLane="best" color="68,242,219">
        <route edges="14 16 20 22"/>
    </vehicle>
    <vehicle id="fl43_st0.0.8" depart="137.48" departLane="best" color="68,242,219">
        <route edges="43 42 41 23 19 18 17 15"/>
    </vehicle>
    <vehicle id="fl39_st0.0.6" depart="138.56" departLane="best" color="68,242,219">
        <route edges="39 37 23 19 18 17 13 10 11 48"/>
    </vehicle>
    <vehicle id="fl8_st0.0.19" depart="139.18" departLane="best" color="68,242,219">
        <route edges="8 2 3 16 20 24 25 28 33"/>
    </vehicle>
    <vehicle id="fl47_st0.0.22" depart="141.21" departLane="best" color="68,242,219">
        <route edges="47 45 42 41 23 19 18 17 13 10 11 48"/>
    </vehicle>
    <vehicle id="fl39_st0.0.7" depart="141.40" departLane="best" color="68,242,219">
        <route edges="39 37 25 28 35"/>
    </vehicle>
    <vehicle id="fl1_st0.0.24" depart="141.56" departLane="best" color="68,242,219">
        <route edges="1 6 3 16 20 24 25 28 33"/>
    </vehicle>
    <vehicle id="fl7_st0.0.2" depart="142.48" departLane="best" color="68,242,219">
        <route edges="7 4 3 16 20 22"/>
    </vehicle>
    <vehicle id="fl1_st0.0.25" depart="144.36" departLane="best" color="68,242,219">
        <route edges="1 6 3 16 20 24 40 46"/>
    </vehicle>
    <vehicle id="fl36_st0.0.15" depart="144.54" departLane="best" color="68,242,219">
        <route edges="36 34 26 27 23 19 18 17 13 10 11 9"/>
    </vehicle>
    <vehicle id="fl21_st0.0.23" depart="144.93" departLane="best" color="68,242,219">
        <route edges="21 24 40 46"/>
    </vehicle>
    <vehicle id="fl21_st0.0.24" depart="145.27" departLane="best" color="68,242,219">
        <route edges="21 24 25 28 35"/>
    </vehicle>
    <vehicle id="fl43_st0.0.9" depart="145.79" departLane="best" color="68,242,219">
        <route edges="43 42 41 23 22"/>
    </vehicle>
    <vehicle id="fl36_st0.0.16" depart="146.47" departLane="best" color="68,242,219">
        <route edges="36 34 26 27 23 19 18 17 15"/>
    </vehicle>
    <vehicle id="fl7_st0.0.3" depart="147.44" departLane="best" color="68,242,219">
        <route edges="7 4 9"/>
    </vehicle>
    <vehicle id="fl7_st0.0.4" depart="147.72" departLane="best" color="68,242,219">
        <route edges="7 4 48"/>
    </vehicle>
    <vehicle id="fl14_st0.0.27" depart="151.46" departLane="best" color="68,242,219">
        <route edges="14 13 10 11 9"/>
    </vehicle>
    <vehicle id="fl39_st0.0.8" depart="152.36" departLane="best" color="68,242,219">
        <route edges="39 37 23 19 18 17 15"/>
    </vehicle>
    <vehicle id="fl29_st0.0.4" depart="153.00" departLane="best" color="68,242,219">
        <route edges="29 26 27 23 19 18 17 13 10 11 9"/>
    </vehicle>
    <vehicle id="fl36_st0.0.17" depart="155.68" departLane="best" color="68,242,219">
        <route edges="36 34 26 27 40 46"/>
    </vehicle>
    <vehicle id="fl36_st0.0.18" depart="156.50" departLane="best" color="68,242,219">
        <route edges="36 34 26 27 23 22"/>
    </vehicle>
    <vehicle id="fl1_st0.0.26" depart="157.16" departLane="best" color="68,242,219">
        <route edges="1 6 3 16 20 24 40 46"/>
    </vehicle>
    <vehicle id="fl39_st0.0.9" depart="157.70" departLane="best" color="68,242,219">
        <route edges="39 37 40 46"/>
    </vehicle>
    <vehicle id="fl32_st0.0.2" depart="157.80" departLane="best" color="68,242,219">
        <route edges="32 31 35"/>
    </vehicle>
    <vehicle id="fl36_st0.0.19" depart="158.06" departLane="best" color="68,242,219">
        <route edges="36 34 26 27 23 19 18 17 15"/>
    </vehicle>
    <vehicle id="fl1_st0.0.27" depart="158.82" departLane="best" color="68,242,219">
        <route edges="1 6 3 16 20 24 40 46"/>
    </vehicle>
    <vehicle id="fl39_st0.0.10" depart="160.08" departLane="best" color="68,242,219">
        <route edges="39 37 25 28 35"/>
    </vehicle>
    <vehicle id="fl47_st0.0.23" depart="160.38" departLane="best" color="68,242,219">
        <route edges="47 45 42 41 23 19 18 17 15"/>
    </vehicle>
    <vehicle id="fl14_st0.0.28" depart="160.78" departLane="best" color="68,242,219">
        <route edges="14 13 10 11 9"/>
    </vehicle>
    <vehicle id="fl21_st0.0.25" depart="163.04" departLane="best" color="68,242,219">
        <route edges="21 22"/>
    </vehicle>
    <vehicle id="fl14_st0.0.29" depart="163.27" departLane="best" color="68,242,219">
        <route edges="14 16 20 24 40 46"/>
    </vehicle>
    <vehicle id="fl39_st0.0.11" depart="164.05" departLane="best" color="68,242,219">
        <route edges="39 37 23 19 18 17 15"/>
    </vehicle>
    <vehicle id="fl36_st0.0.20" depart="165.58" departLane="best" color="68,242,219">
        <route edges="36 34 26 27 23 19 18 17 13 10 11 9"/>
    </vehicle>
    <vehicle id="fl21_st0.0.26" depart="166.47" departLane="best" color="68,242,219">
        <route edges="21 24 25 28 35"/>
    </vehicle>
    <vehicle id="fl29_st0.0.5" depart="170.10" departLane="best" color="68,242,219">
        <route edges="29 26 27 23 19 18 17 15"/>
    </vehicle>
    <vehicle id="fl47_st0.0.24" depart="174.02" departLane="best" color="68,242,219">
        <route edges="47 45 42 41 23 19 18 17 13 10 11 9"/>
    </vehicle>
    <vehicle id="fl36_st0.0.21" depart="175.21" departLane="best" color="68,242,219">
        <route edges="36 34 26 27 23 19 18 17 15"/>
    </vehicle>
    <vehicle id="fl39_st0.0.12" depart="176.08" departLane="best" color="68,242,219">
        <route edges="39 37 23 19 18 17 15"/>
    </vehicle>
    <vehicle id="fl1_st0.0.28" depart="176.62" departLane="best" color="68,242,219">
        <route edges="1 6 3 16 20 24 40 46"/>
    </vehicle>
    <vehicle id="fl8_st0.0.20" depart="177.79" departLane="best" color="68,242,219">
        <route edges="8 2 3 16 20 24 25 28 35"/>
    </vehicle>
    <vehicle id="fl1_st0.0.29" depart="178.27" departLane="best" color="68,242,219">
        <route edges="1 6 3 15"/>
    </vehicle>
    <vehicle id="fl21_st0.0.27" depart="179.35" departLane="best" color="68,242,219">
        <route edges="21 24 40 46"/>
    </vehicle>
    <vehicle id="fl47_st0.0.25" depart="179.83" departLane="best" color="68,242,219">
        <route edges="47 45 42 41 23 19 18 17 15"/>
    </vehicle>
    <vehicle id="fl21_st0.0.28" depart="180.55" departLane="best" color="68,242,219">
        <route edges="21 24 25 28 35"/>
    </vehicle>
    <vehicle id="fl47_st0.0.26" depart="181.36" departLane="best" color="68,242,219">
        <route edges="47 45 42 41 23 22"/>
    </vehicle>
    <vehicle id="fl1_st0.0.30" depart="183.06" departLane="best" color="68,242,219">
        <route edges="1 6 3 16 20 24 40 46"/>
    </vehicle>
    <vehicle id="fl8_st0.0.21" depart="184.06" departLane="best" color="68,242,219">
        <route edges="8 2 3 16 20 24 25 28 35"/>
    </vehicle>
    <vehicle id="fl7_st0.0.5" depart="184.42" departLane="best" color="68,242,219">
        <route edges="7 4 9"/>
    </vehicle>
    <vehicle id="fl21_st0.0.29" depart="186.83" departLane="best" color="68,242,219">
        <route edges="21 19 18 17 15"/>
    </vehicle>
    <vehicle id="fl14_st0.0.30" depart="187.21" departLane="best" color="68,242,219">
        <route edges="14 16 20 24 40 46"/>
    </vehicle>
    <vehicle id="fl1_st0.0.31" depart="187.63" departLane="best" color="68,242,219">