<?xml version="1.0" encoding="UTF-8"?>

<!-- generated on 2022-01-07 13:42:05 by Eclipse SUMO jtrrouter Version 1.9.2
<configuration xmlns:xsi="http://www.w3.org/2001/XMLSchema-instance" xsi:noNamespaceSchemaLocation="http://sumo.dlr.de/xsd/jtrrouterConfiguration.xsd">

    <input>
        <net-file value="networks/stalbert/stalbert_fixed.net.xml"/>
        <route-files value="networks/stalbert/stalbert_8-9pm_fixed.flows.xml"/>
        <turn-ratio-files value="networks/stalbert/stalbert_8-9pm_fixed.turns.xml"/>
    </input>

    <output>
        <output-file value="networks/stalbert/stalbert_8-9pm_fixed_jtr.rou.xml"/>
    </output>

    <processing>
        <no-internal-links value="false"/>
        <randomize-flows value="true"/>
        <repair value="true"/>
        <accept-all-destinations value="true"/>
    </processing>

    <defaults>
        <departlane value="best"/>
    </defaults>

    <time>
        <begin value="0"/>
        <end value="3600"/>
    </time>

    <random_number>
        <seed value="42"/>
    </random_number>

</configuration>
-->

<routes xmlns:xsi="http://www.w3.org/2001/XMLSchema-instance" xsi:noNamespaceSchemaLocation="http://sumo.dlr.de/xsd/routes_file.xsd">
    <vehicle id="fl119_st0.0.0" depart="0.13" departLane="best" color="68,242,219">
        <route edges="119 122"/>
    </vehicle>
    <vehicle id="fl83_st0.0.0" depart="0.40" departLane="best" color="68,242,219">
        <route edges="83 90 91 92 103 108 110 116 122"/>
    </vehicle>
    <vehicle id="fl4_st0.0.0" depart="1.06" departLane="best" color="68,242,219">
        <route edges="4 99 98 96"/>
    </vehicle>
    <vehicle id="fl86_st0.0.0" depart="1.25" departLane="best" color="68,242,219">
        <route edges="86 81 79 68 67 61 56 57 49 43 40 39 33 23 24 9 8 1"/>
    </vehicle>
    <vehicle id="fl30_st0.0.0" depart="2.87" departLane="best" color="68,242,219">
        <route edges="30 26 19 15 25 32 38 41 42 50 55 58 62 69 74 80 82 90 91 93 100"/>
    </vehicle>
    <vehicle id="fl30_st0.0.1" depart="3.05" departLane="best" color="68,242,219">
        <route edges="30 26 19 15 25 32 34"/>
    </vehicle>
    <vehicle id="fl47_st0.0.0" depart="3.27" departLane="best" color="68,242,219">
        <route edges="47 46 42 50 55 58 62 69 74 80 82 90 91 92 103 108 110 116 122"/>
    </vehicle>
    <vehicle id="fl104_st0.0.0" depart="5.29" departLane="best" color="68,242,219">
        <route edges="104 95 89 88 81 79 68 67 61 56 57 49 44 48"/>
    </vehicle>
    <vehicle id="fl47_st0.0.1" depart="5.49" departLane="best" color="68,242,219">
        <route edges="47 46 42 50 55 58 64"/>
    </vehicle>
    <vehicle id="fl86_st0.0.1" depart="6.95" departLane="best" color="68,242,219">
        <route edges="86 81 79 68 67 61 56 57 49 44 48"/>
    </vehicle>
    <vehicle id="fl35_st0.0.0" depart="9.44" departLane="best" color="68,242,219">
        <route edges="35 73 38 41 48"/>
    </vehicle>
    <vehicle id="fl36_st0.0.0" depart="9.54" departLane="best" color="68,242,219">
        <route edges="36 72 33 23 24 9 8 1"/>
    </vehicle>
    <vehicle id="fl6_st0.0.0" depart="12.67" departLane="best" color="68,242,219">
        <route edges="6 70 2"/>
    </vehicle>
    <vehicle id="fl20_st0.0.0" depart="13.22" departLane="best" color="68,242,219">
        <route edges="20 121 115 109 107 106 101 89 88 81 79 68 67 61 56 57 49 43 40 39 33 23 24 9 8 1"/>
    </vehicle>
    <vehicle id="fl6_st0.0.1" depart="13.99" departLane="best" color="68,242,219">
        <route edges="6 70 7 21 10 25 32 38 41 42 50 55 58 62 69 74 80 82 90 91 92 96"/>
    </vehicle>
    <vehicle id="fl63_st0.0.0" depart="17.64" departLane="best" color="68,242,219">
        <route edges="63 60"/>
    </vehicle>
    <vehicle id="fl20_st0.0.1" depart="19.82" departLane="best" color="68,242,219">
        <route edges="20 121 115 109 107 106 101 100"/>
    </vehicle>
    <vehicle id="fl63_st0.0.1" depart="19.87" departLane="best" color="68,242,219">
        <route edges="63 62 69 74 80 82 90 91 92 96"/>
    </vehicle>
    <vehicle id="fl18_st0.0.0" depart="21.96" departLane="best" color="68,242,219">
        <route edges="18 14 25 32 38 41 42 50 55 58 62 69 74 80 82 90 91 92 103 108 110 116 122"/>
    </vehicle>
    <vehicle id="fl30_st0.0.2" depart="22.67" departLane="best" color="68,242,219">
        <route edges="30 26 19 12 9 8 1"/>
    </vehicle>
    <vehicle id="fl6_st0.0.2" depart="23.25" departLane="best" color="68,242,219">
        <route edges="6 70 7 21 10 25 32 38 41 42 50 55 58 62 69 74 80 82 90 91 92 96"/>
    </vehicle>
    <vehicle id="fl4_st0.0.1" depart="23.28" departLane="best" color="68,242,219">
        <route edges="4 99 98 96"/>
    </vehicle>
    <vehicle id="fl4_st0.0.2" depart="23.32" departLane="best" color="68,242,219">
        <route edges="4 99 97 103 108 110 116 122"/>
    </vehicle>
    <vehicle id="fl18_st0.0.1" depart="24.54" departLane="best" color="68,242,219">
        <route edges="18 16 22 28 27"/>
    </vehicle>
    <vehicle id="fl18_st0.0.2" depart="25.94" departLane="best" color="68,242,219">
        <route edges="18 16 9 8 1"/>
    </vehicle>
    <vehicle id="fl4_st0.0.3" depart="26.07" departLane="best" color="68,242,219">
        <route edges="4 99 97 103 108 110 116 122"/>
    </vehicle>
    <vehicle id="fl4_st0.0.4" depart="26.73" departLane="best" color="68,242,219">
        <route edges="4 99 98 96"/>
    </vehicle>
    <vehicle id="fl63_st0.0.2" depart="26.79" departLane="best" color="68,242,219">
        <route edges="63 62 69 74 80 82 90 91 92 103 108 110 116 122"/>
    </vehicle>
    <vehicle id="fl76_st0.0.0" depart="27.71" departLane="best" color="68,242,219">
        <route edges="76 80 82 90 91 92 96"/>
    </vehicle>
    <vehicle id="fl30_st0.0.3" depart="28.25" departLane="best" color="68,242,219">
        <route edges="30 26 19 15 25 32 38 41 42 50 55 58 62 69 74 80 82 90 91 92 103 108 110 116 122"/>
    </vehicle>
    <vehicle id="fl30_st0.0.4" depart="32.71" departLane="best" color="68,242,219">
        <route edges="30 26 19 15 17"/>
    </vehicle>
    <vehicle id="fl20_st0.0.2" depart="34.91" departLane="best" color="68,242,219">
        <route edges="20 121 117"/>
    </vehicle>
    <vehicle id="fl30_st0.0.5" depart="36.63" departLane="best" color="68,242,219">
        <route edges="30 26 19 15 17"/>
    </vehicle>
    <vehicle id="fl54_st0.0.0" depart="38.10" departLane="best" color="68,242,219">
        <route edges="54 111 55 58 64"/>
    </vehicle>
    <vehicle id="fl30_st0.0.6" depart="38.47" departLane="best" color="68,242,219">
        <route edges="30 26 19 12 9 8 1"/>
    </vehicle>
    <vehicle id="fl63_st0.0.3" depart="39.08" departLane="best" color="68,242,219">
        <route edges="63 62 69 74 80 82 90 91 92 103 108 110 116 120"/>
    </vehicle>
    <vehicle id="fl30_st0.0.7" depart="39.35" departLane="best" color="68,242,219">
        <route edges="30 26 19 12 9 8 1"/>
    </vehicle>
    <vehicle id="fl20_st0.0.3" depart="40.74" departLane="best" color="68,242,219">
        <route edges="20 121 117"/>
    </vehicle>
    <vehicle id="fl3_st0.0.0" depart="41.09" departLane="best" color="68,242,219">
        <route edges="3 7 21 10 22 28 27"/>
    </vehicle>
    <vehicle id="fl18_st0.0.3" depart="43.59" departLane="best" color="68,242,219">
        <route edges="18 16 22 28 27"/>
    </vehicle>
    <vehicle id="fl30_st0.0.8" depart="45.71" departLane="best" color="68,242,219">
        <route edges="30 26 19 15 25 32 38 41 48"/>
    </vehicle>
    <vehicle id="fl20_st0.0.4" depart="47.06" departLane="best" color="68,242,219">
        <route edges="20 121 115 109 107 106 101 89 88 81 79 68 67 61 56 57 49 43 40 39 33 23 24 9 8 1"/>
    </vehicle>
    <vehicle id="fl6_st0.0.3" depart="48.98" departLane="best" color="68,242,219">
        <route edges="6 70 7 21 10 25 32 38 41 42 50 55 58 62 69 74 80 82 90 91 93 100"/>
    </vehicle>
    <vehicle id="fl47_st0.0.2" depart="49.12" departLane="best" color="68,242,219">
        <route edges="47 46 42 50 55 58 62 69 74 80 82 90 91 92 103 108 110 116 122"/>
    </vehicle>
    <vehicle id="fl30_st0.0.9" depart="51.66" departLane="best" color="68,242,219">
        <route edges="30 26 19 12 9 8 1"/>
    </vehicle>
    <vehicle id="fl4_st0.0.5" depart="51.75" departLane="best" color="68,242,219">
        <route edges="4 99 98 96"/>
    </vehicle>
    <vehicle id="fl47_st0.0.3" depart="51.93" departLane="best" color="68,242,219">
        <route edges="47 46 42 50 55 58 64"/>
    </vehicle>
    <vehicle id="fl63_st0.0.4" depart="52.53" departLane="best" color="68,242,219">
        <route edges="63 62 69 74 80 82 90 91 92 96"/>
    </vehicle>
    <vehicle id="fl30_st0.0.10" depart="55.61" departLane="best" color="68,242,219">
        <route edges="30 26 19 15 25 32 38 41 42 50 55 58 62 69 74 80 82 90 91 93 100"/>
    </vehicle>
    <vehicle id="fl4_st0.0.6" depart="57.11" departLane="best" color="68,242,219">
        <route edges="4 99 98 89 88 81 79 68 67 61 56 57 49 43 40 39 33 23 13 22 28 29"/>
    </vehicle>
    <vehicle id="fl119_st0.0.1" depart="57.55" departLane="best" color="68,242,219">
        <route edges="119 117"/>
    </vehicle>
    <vehicle id="fl104_st0.0.1" depart="58.60" departLane="best" color="68,242,219">
        <route edges="104 95 89 88 81 79 68 67 61 56 57 49 43 40 39 33 23 24 9 8 1"/>
    </vehicle>
    <vehicle id="fl30_st0.0.11" depart="61.09" departLane="best" color="68,242,219">
        <route edges="30 26 19 15 25 32 37"/>
    </vehicle>
    <vehicle id="fl47_st0.0.4" depart="61.48" departLane="best" color="68,242,219">
        <route edges="47 45 40 39 34"/>
    </vehicle>
    <vehicle id="fl18_st0.0.4" depart="64.04" departLane="best" color="68,242,219">
        <route edges="18 16 22 28 27"/>
    </vehicle>
    <vehicle id="fl104_st0.0.2" depart="64.32" departLane="best" color="68,242,219">
        <route edges="104 94 100"/>
    </vehicle>
    <vehicle id="fl118_st0.0.0" depart="64.77" departLane="best" color="68,242,219">
        <route edges="118 120"/>
    </vehicle>
    <vehicle id="fl30_st0.0.12" depart="65.32" departLane="best" color="68,242,219">
        <route edges="30 26 19 15 25 32 38 41 42 50 55 58 62 69 74 80 82 90 91 92 103 108 110 116 122"/>
    </vehicle>
    <vehicle id="fl3_st0.0.1" depart="65.73" departLane="best" color="68,242,219">
        <route edges="3 7 21 10 25 32 38 41 42 50 55 58 62 69 74 80 82 90 91 93 100"/>
    </vehicle>
    <vehicle id="fl30_st0.0.13" depart="65.73" departLane="best" color="68,242,219">
        <route edges="30 26 19 15 25 32 38 41 42 50 55 58 62 69 74 80 82 90 91 92 103 108 110 116 122"/>
    </vehicle>
    <vehicle id="fl47_st0.0.5" depart="65.95" departLane="best" color="68,242,219">
        <route edges="47 45 40 39 33 23 13 22 28 27"/>
    </vehicle>
    <vehicle id="fl59_st0.0.0" depart="66.20" departLane="best" color="68,242,219">
        <route edges="59 62 69 74 80 82 90 91 93 100"/>
    </vehicle>
    <vehicle id="fl47_st0.0.6" depart="66.23" departLane="best" color="68,242,219">
        <route edges="47 46 42 50 55 58 62 69 74 80 82 90 91 92 96"/>
    </vehicle>
    <vehicle id="fl35_st0.0.1" depart="67.22" departLane="best" color="68,242,219">
        <route edges="35 73 33 23 24 9 8 1"/>
    </vehicle>
    <vehicle id="fl4_st0.0.7" depart="67.66" departLane="best" color="68,242,219">
        <route edges="4 99 98 89 88 81 79 68 67 61 56 57 49 43 40 39 33 23 13 22 28 29"/>
    </vehicle>
    <vehicle id="fl3_st0.0.2" depart="68.15" departLane="best" color="68,242,219">
        <route edges="3 7 21 10 25 32 38 41 42 50 55 58 62 69 74 80 82 90 91 92 96"/>
    </vehicle>
    <vehicle id="fl86_st0.0.2" depart="70.39" departLane="best" color="68,242,219">
        <route edges="86 90 91 92 103 108 110 116 122"/>
    </vehicle>
    <vehicle id="fl47_st0.0.7" depart="70.64" departLane="best" color="68,242,219">
        <route edges="47 46 42 50 55 58 62 69 74 80 82 90 91 92 103 108 110 116 122"/>
    </vehicle>
    <vehicle id="fl30_st0.0.14" depart="71.30" departLane="best" color="68,242,219">
        <route edges="30 26 19 12 9 8 1"/>
    </vehicle>
    <vehicle id="fl4_st0.0.8" depart="72.30" departLane="best" color="68,242,219">
        <route edges="4 99 97 103 108 110 116 122"/>
    </vehicle>
    <vehicle id="fl30_st0.0.15" depart="73.52" departLane="best" color="68,242,219">
        <route edges="30 26 19 15 25 32 38 41 42 50 55 58 62 69 74 80 82 90 91 92 103 108 110 116 122"/>
    </vehicle>
    <vehicle id="fl54_st0.0.1" depart="74.46" departLane="best" color="68,242,219">
        <route edges="54 111 55 58 62 69 74 80 82 90 91 92 103 108 110 116 122"/>
    </vehicle>
    <vehicle id="fl18_st0.0.5" depart="75.77" departLane="best" color="68,242,219">
        <route edges="18 16 22 28 27"/>
    </vehicle>
    <vehicle id="fl119_st0.0.2" depart="76.08" departLane="best" color="68,242,219">
        <route edges="119 117"/>
    </vehicle>
    <vehicle id="fl20_st0.0.5" depart="76.22" departLane="best" color="68,242,219">
        <route edges="20 121 115 109 107 106 101 89 88 81 79 68 67 61 56 57 49 43 40 39 33 23 24 9 8 1"/>
    </vehicle>
    <vehicle id="fl35_st0.0.2" depart="78.78" departLane="best" color="68,242,219">
        <route edges="35 73 38 41 42 50 55 58 62 69 74 80 82 90 91 92 96"/>
    </vehicle>
    <vehicle id="fl4_st0.0.9" depart="81.26" departLane="best" color="68,242,219">
        <route edges="4 99 98 89 88 81 79 68 67 61 56 57 49 44 48"/>
    </vehicle>
    <vehicle id="fl47_st0.0.8" depart="82.75" departLane="best" color="68,242,219">
        <route edges="47 45 40 39 33 23 24 9 8 1"/>
    </vehicle>
    <vehicle id="fl59_st0.0.1" depart="82.84" departLane="best" color="68,242,219">
        <route edges="59 62 69 74 80 82 90 91 92 103 108 110 116 122"/>
    </vehicle>
    <vehicle id="fl3_st0.0.3" depart="84.65" departLane="best" color="68,242,219">
        <route edges="3 7 21 10 25 32 34"/>
    </vehicle>
    <vehicle id="fl30_st0.0.16" depart="84.90" departLane="best" color="68,242,219">
        <route edges="30 26 19 15 25 32 38 41 42 50 55 58 62 69 74 80 82 90 91 92 103 108 110 116 122"/>
    </vehicle>
    <vehicle id="fl47_st0.0.9" depart="86.00" departLane="best" color="68,242,219">
        <route edges="47 45 40 39 34"/>
    </vehicle>
    <vehicle id="fl119_st0.0.3" depart="91.75" departLane="best" color="68,242,219">
        <route edges="119 117"/>
    </vehicle>
    <vehicle id="fl4_st0.0.10" depart="91.87" departLane="best" color="68,242,219">
        <route edges="4 99 98 89 88 81 79 68 67 61 56 57 49 43 40 39 33 23 24 9 8 1"/>
    </vehicle>
    <vehicle id="fl83_st0.0.1" depart="92.19" departLane="best" color="68,242,219">
        <route edges="83 90 91 92 103 108 110 116 122"/>
    </vehicle>
    <vehicle id="fl104_st0.0.3" depart="92.26" departLane="best" color="68,242,219">
        <route edges="104 95 89 88 81 79 68 67 61 56 57 49 43 40 39 33 23 13 22 28 29"/>
    </vehicle>
    <vehicle id="fl104_st0.0.4" depart="93.07" departLane="best" color="68,242,219">
        <route edges="104 95 89 88 81 79 68 67 61 56 57 49 43 40 39 33 23 24 9 8 1"/>
    </vehicle>
    <vehicle id="fl20_st0.0.6" depart="94.27" departLane="best" color="68,242,219">
        <route edges="20 121 115 109 107 106 101 89 88 81 79 68 67 61 56 57 49 43 40 39 33 23 24 9 8 1"/>
    </vehicle>
    <vehicle id="fl4_st0.0.11" depart="95.26" departLane="best" color="68,242,219">
        <route edges="4 99 98 96"/>
    </vehicle>
    <vehicle id="fl4_st0.0.12" depart="95.46" departLane="best" color="68,242,219">
        <route edges="4 99 98 96"/>
    </vehicle>
    <vehicle id="fl104_st0.0.5" depart="98.72" departLane="best" color="68,242,219">
        <route edges="104 94 100"/>
    </vehicle>
    <vehicle id="fl30_st0.0.17" depart="100.24" departLane="best" color="68,242,219">
        <route edges="30 26 19 15 25 32 38 41 42 50 55 58 62 69 74 80 82 90 91 93 100"/>
    </vehicle>
    <vehicle id="fl3_st0.0.4" depart="103.36" departLane="best" color="68,242,219">
        <route edges="3 7 21 10 22 28 27"/>
    </vehicle>
    <vehicle id="fl30_st0.0.18" depart="106.08" departLane="best" color="68,242,219">
        <route edges="30 26 19 15 17"/>
    </vehicle>
    <vehicle id="fl3_st0.0.5" depart="106.53" departLane="best" color="68,242,219">
        <route edges="3 7 21 10 25 32 38 41 42 50 55 58 62 69 74 80 82 90 91 93 100"/>
    </vehicle>
    <vehicle id="fl30_st0.0.19" depart="107.45" departLane="best" color="68,242,219">
        <route edges="30 26 19 15 25 32 38 41 42 50 55 58 62 69 74 80 82 90 91 92 103 108 110 116 122"/>
    </vehicle>
    <vehicle id="fl30_st0.0.20" depart="107.51" departLane="best" color="68,242,219">
        <route edges="30 26 19 15 25 32 38 41 42 50 55 58 62 69 74 80 82 90 91 93 100"/>
    </vehicle>
    <vehicle id="fl47_st0.0.10" depart="108.94" departLane="best" color="68,242,219">
        <route edges="47 46 42 50 55 58 62 69 74 80 82 90 91 92 103 108 110 116 122"/>
    </vehicle>
    <vehicle id="fl18_st0.0.6" depart="109.56" departLane="best" color="68,242,219">
        <route edges="18 14 25 32 38 41 42 50 55 58 62 69 74 80 82 90 91 92 103 108 110 116 122"/>
    </vehicle>
    <vehicle id="fl30_st0.0.21" depart="109.75" departLane="best" color="68,242,219">
        <route edges="30 26 19 15 25 32 37"/>
    </vehicle>
    <vehicle id="fl30_st0.0.22" depart="110.08" departLane="best" color="68,242,219">
        <route edges="30 26 19 15 25 32 37"/>
    </vehicle>
    <vehicle id="fl3_st0.0.6" depart="110.27" departLane="best" color="68,242,219">
        <route edges="3 7 21 10 25 32 38 41 42 50 55 58 62 69 74 80 82 90 91 92 103 108 110 116 122"/>
    </vehicle>
    <vehicle id="fl104_st0.0.6" depart="112.22" departLane="best" color="68,242,219">
        <route edges="104 94 100"/>
    </vehicle>
    <vehicle id="fl30_st0.0.23" depart="112.55" departLane="best" color="68,242,219">
        <route edges="30 26 19 15 17"/>
    </vehicle>
    <vehicle id="fl78_st0.0.0" depart="112.82" departLane="best" color="68,242,219">
        <route edges="78 80 82 90 91 92 103 108 110 116 122"/>
    </vehicle>
    <vehicle id="fl30_st0.0.24" depart="115.29" departLane="best" color="68,242,219">
        <route edges="30 26 19 15 25 32 38 41 42 50 53"/>
    </vehicle>
    <vehicle id="fl30_st0.0.25" depart="116.38" departLane="best" color="68,242,219">
        <route edges="30 26 19 12 9 8 1"/>
    </vehicle>
    <vehicle id="fl4_st0.0.13" depart="116.42" departLane="best" color="68,242,219">
        <route edges="4 99 98 89 88 81 79 68 67 61 56 57 49 43 40 39 34"/>
    </vehicle>
    <vehicle id="fl30_st0.0.26" depart="117.80" departLane="best" color="68,242,219">
        <route edges="30 26 19 15 17"/>
    </vehicle>
    <vehicle id="fl30_st0.0.27" depart="118.02" departLane="best" color="68,242,219">
        <route edges="30 26 19 15 25 32 38 41 42 50 55 58 62 69 74 80 82 90 91 92 103 108 110 116 122"/>
    </vehicle>
    <vehicle id="fl4_st0.0.14" depart="118.03" departLane="best" color="68,242,219">
        <route edges="4 99 98 89 88 81 79 68 67 61 56 57 49 43 40 39 33 23 24 9 8 1"/>
    </vehicle>
    <vehicle id="fl30_st0.0.28" depart="118.45" departLane="best" color="68,242,219">
        <route edges="30 27"/>
    </vehicle>
    <vehicle id="fl30_st0.0.29" depart="118.83" departLane="best" color="68,242,219">
        <route edges="30 26 19 15 25 32 38 41 42 50 55 58 62 69 74 80 82 90 91 92 103 108 110 116 122"/>
    </vehicle>
    <vehicle id="fl3_st0.0.7" depart="121.96" departLane="best" color="68,242,219">
        <route edges="3 7 21 10 22 28 27"/>
    </vehicle>
    <vehicle id="fl76_st0.0.1" depart="122.40" departLane="best" color="68,242,219">
        <route edges="76 80 82 90 91 92 103 108 110 116 120"/>
    </vehicle>
    <vehicle id="fl18_st0.0.7" depart="122.41" departLane="best" color="68,242,219">
        <route edges="18 16 22 28 29"/>
    </vehicle>
    <vehicle id="fl104_st0.0.7" depart="124.04" departLane="best" color="68,242,219">
        <route edges="104 95 89 88 81 79 68 67 61 56 57 49 43 40 39 33 23 13 22 28 27"/>
    </vehicle>
    <vehicle id="fl30_st0.0.30" depart="124.12" departLane="best" color="68,242,219">
        <route edges="30 26 19 15 25 32 38 41 42 50 55 58 62 69 74 80 82 90 91 93 100"/>
    </vehicle>
    <vehicle id="fl30_st0.0.31" depart="125.66" departLane="best" color="68,242,219">
        <route edges="30 26 19 15 17"/>
    </vehicle>
    <vehicle id="fl119_st0.0.4" depart="125.89" departLane="best" color="68,242,219">
        <route edges="119 117"/>
    </vehicle>
    <vehicle id="fl83_st0.0.2" depart="125.92" departLane="best" color="68,242,219">
        <route edges="83 90 91 93 100"/>
    </vehicle>
    <vehicle id="fl118_st0.0.1" depart="126.11" departLane="best" color="68,242,219">
        <route edges="118 120"/>
    </vehicle>
    <vehicle id="fl18_st0.0.8" depart="127.95" departLane="best" color="68,242,219">
        <route edges="18 14 25 32 38 41 48"/>
    </vehicle>
    <vehicle id="fl63_st0.0.5" depart="128.15" departLane="best" color="68,242,219">
        <route edges="63 60"/>
    </vehicle>
    <vehicle id="fl30_st0.0.32" depart="128.39" departLane="best" color="68,242,219">
        <route edges="30 26 19 15 25 32 34"/>
    </vehicle>
    <vehicle id="fl4_st0.0.15" depart="130.56" departLane="best" color="68,242,219">
        <route edges="4 99 98 96"/>
    </vehicle>
    <vehicle id="fl30_st0.0.33" depart="131.37" departLane="best" color="68,242,219">
        <route edges="30 26 19 15 25 32 38 41 42 50 55 58 62 69 74 80 82 90 91 92 103 108 110 116 122"/>
    </vehicle>
    <vehicle id="fl47_st0.0.11" depart="131.48" departLane="best" color="68,242,219">
        <route edges="47 45 40 39 33 23 13 22 28 29"/>
    </vehicle>
    <vehicle id="fl3_st0.0.8" depart="131.93" departLane="best" color="68,242,219">
        <route edges="3 7 21 10 25 32 38 41 48"/>
    </vehicle>
    <vehicle id="fl119_st0.0.5" depart="132.72" departLane="best" color="68,242,219">
        <route edges="119 117"/>
    </vehicle>
    <vehicle id="fl30_st0.0.34" depart="133.27" departLane="best" color="68,242,219">
        <route edges="30 26 19 12 9 8 1"/>
    </vehicle>
    <vehicle id="fl119_st0.0.6" depart="133.52" departLane="best" color="68,242,219">
        <route edges="119 117"/>
    </vehicle>
    <vehicle id="fl20_st0.0.7" depart="133.55" departLane="best" color="68,242,219">
        <route edges="20 121 115 109 107 106 101 89 88 81 79 68 67 61 56 57 49 43 40 39 33 23 13 22 28 29"/>
    </vehicle>
    <vehicle id="fl6_st0.0.4" depart="133.77" departLane="best" color="68,242,219">
        <route edges="6 70 7 21 10 22 28 29"/>
    </vehicle>
    <vehicle id="fl30_st0.0.35" depart="134.51" departLane="best" color="68,242,219">
        <route edges="30 26 19 15 25 32 38 41 42 50 55 58 62 69 74 80 82 90 91 93 100"/>
    </vehicle>
    <vehicle id="fl71_st0.0.0" depart="134.63" departLane="best" color="68,242,219">
        <route edges="71 1"/>
    </vehicle>
    <vehicle id="fl78_st0.0.1" depart="135.23" departLane="best" color="68,242,219">
        <route edges="78 68 67 61 56 57 49 43 40 39 33 23 13 22 28 29"/>
    </vehicle>
    <vehicle id="fl6_st0.0.5" depart="136.33" departLane="best" color="68,242,219">
        <route edges="6 70 1"/>
    </vehicle>
    <vehicle id="fl104_st0.0.8" depart="137.02" departLane="best" color="68,242,219">
        <route edges="104 95 89 88 81 79 68 67 61 56 57 49 43 40 39 33 23 13 22 28 27"/>
    </vehicle>
    <vehicle id="fl3_st0.0.9" depart="137.34" departLane="best" color="68,242,219">
        <route edges="3 7 21 10 25 32 38 41 42 50 55 58 62 69 74 80 82 90 91 93 100"/>
    </vehicle>
    <vehicle id="fl104_st0.0.9" depart="137.54" departLane="best" color="68,242,219">
        <route edges="104 94 100"/>
    </vehicle>
    <vehicle id="fl18_st0.0.9" depart="137.85" departLane="best" color="68,242,219">
        <route edges="18 14 25 32 38 41 42 50 55 58 62 69 74 80 82 90 91 93 100"/>
    </vehicle>
    <vehicle id="fl18_st0.0.10" depart="139.18" departLane="best" color="68,242,219">
        <route edges="18 16 22 28 29"/>
    </vehicle>
    <vehicle id="fl30_st0.0.36" depart="141.56" departLane="best" color="68,242,219">
        <route edges="30 26 19 15 25 32 38 41 42 50 55 58 62 69 74 80 82 90 91 93 100"/>
    </vehicle>
    <vehicle id="fl30_st0.0.37" depart="142.48" departLane="best" color="68,242,219">
        <route edges="30 26 19 15 25 32 38 41 42 50 55 58 62 69 74 80 82 90 91 92 103 108 110 116 122"/>
    </vehicle>
    <vehicle id="fl35_st0.0.3" depart="144.36" departLane="best" color="68,242,219">
        <route edges="35 73 38 41 42 50 55 58 62 69 74 80 82 90 91 92 103 108 110 116 122"/>
    </vehicle>
    <vehicle id="fl20_st0.0.8" depart="144.93" departLane="best" color="68,242,219">
        <route edges="20 121 115 109 107 106 101 89 88 81 79 68 67 61 56 57 49 43 40 39 33 23 13 22 28 29"/>
    </vehicle>
    <vehicle id="fl104_st0.0.10" depart="144.99" departLane="best" color="68,242,219">
        <route edges="104 95 89 88 81 79 68 67 61 64"/>
    </vehicle>
    <vehicle id="fl30_st0.0.38" depart="147.44" departLane="best" color="68,242,219">
        <route edges="30 26 19 15 25 32 38 41 42 50 55 58 62 69 74 80 82 90 91 92 96"/>
    </vehicle>
    <vehicle id="fl118_st0.0.2" depart="147.55" departLane="best" color="68,242,219">
        <route edges="118 115 109 107 106 101 89 88 81 79 68 67 61 56 57 49 43 40 39 33 23 24 9 8 1"/>
    </vehicle>
    <vehicle id="fl30_st0.0.39" depart="147.72" departLane="best" color="68,242,219">
        <route edges="30 26 19 15 25 32 38 41 48"/>
    </vehicle>
    <vehicle id="fl4_st0.0.16" depart="147.98" departLane="best" color="68,242,219">
        <route edges="4 99 98 89 88 81 79 68 67 61 56 57 49 43 40 39 33 23 24 9 8 1"/>
    </vehicle>
    <vehicle id="fl83_st0.0.3" depart="151.46" departLane="best" color="68,242,219">
        <route edges="83 90 91 92 103 108 110 116 122"/>
    </vehicle>
    <vehicle id="fl47_st0.0.12" depart="151.84" departLane="best" color="68,242,219">
        <route edges="47 45 40 39 33 23 24 9 8 5"/>
    </vehicle>
    <vehicle id="fl59_st0.0.2" depart="155.58" departLane="best" color="68,242,219">
        <route edges="59 64"/>
    </vehicle>
    <vehicle id="fl63_st0.0.6" depart="156.54" departLane="best" color="68,242,219">
        <route edges="63 62 69 74 80 82 90 91 92 103 108 110 116 122"/>
    </vehicle>
    <vehicle id="fl3_st0.0.10" depart="156.73" departLane="best" color="68,242,219">
        <route edges="3 7 21 10 25 32 38 41 42 50 53"/>
    </vehicle>
    <vehicle id="fl47_st0.0.13" depart="157.16" departLane="best" color="68,242,219">
        <route edges="47 45 40 39 33 23 13 22 28 29"/>
    </vehicle>
    <vehicle id="fl63_st0.0.7" depart="157.50" departLane="best" color="68,242,219">
        <route edges="63 62 69 74 80 82 90 91 92 96"/>
    </vehicle>
    <vehicle id="fl104_st0.0.11" depart="158.21" departLane="best" color="68,242,219">
        <route edges="104 94 100"/>
    </vehicle>
    <vehicle id="fl20_st0.0.9" depart="158.77" departLane="best" color="68,242,219">
        <route edges="20 121 115 109 107 106 102 96"/>
    </vehicle>
    <vehicle id="fl30_st0.0.40" depart="158.82" departLane="best" color="68,242,219">
        <route edges="30 26 19 15 25 32 38 41 48"/>
    </vehicle>
    <vehicle id="fl35_st0.0.4" depart="160.20" departLane="best" color="68,242,219">
        <route edges="35 73 37"/>
    </vehicle>
    <vehicle id="fl59_st0.0.3" depart="160.78" departLane="best" color="68,242,219">
        <route edges="59 64"/>
    </vehicle>
    <vehicle id="fl20_st0.0.10" depart="162.49" departLane="best" color="68,242,219">
        <route edges="20 121 115 109 107 106 101 89 88 81 79 68 67 61 56 57 49 44 48"/>
    </vehicle>
    <vehicle id="fl83_st0.0.4" depart="163.27" departLane="best" color="68,242,219">
        <route edges="83 90 91 92 103 108 110 116 122"/>
    </vehicle>
    <vehicle id="fl30_st0.0.41" depart="165.84" departLane="best" color="68,242,219">
        <route edges="30 26 19 15 25 32 38 41 42 50 55 58 62 69 74 80 82 90 91 92 103 108 110 116 122"/>
    </vehicle>
    <vehicle id="fl30_st0.0.42" depart="171.89" departLane="best" color="68,242,219">
        <route edges="30 26 19 15 25 32 38 41 42 50 55 58 62 69 74 80 82 90 91 92 103 108 110 116 122"/>
    </vehicle>
    <vehicle id="fl4_st0.0.17" depart="172.31" departLane="best" color="68,242,219">
        <route edges="4 99 98 89 88 81 79 68 67 61 56 57 49 43 40 39 33 23 24 9 8 1"/>
    </vehicle>
    <vehicle id="fl3_st0.0.11" depart="175.20" departLane="best" color="68,242,219">
        <route edges="3 7 21 10 22 28 27"/>
    </vehicle>
    <vehicle id="fl30_st0.0.43" depart="176.62" departLane="best" color="68,242,219">
        <route edges="30 26 19 15 25 32 38 41 42 50 55 58 64"/>
    </vehicle>
    <vehicle id="fl30_st0.0.44" depart="177.25" departLane="best" color="68,242,219">
        <route edges="30 26 19 15 25 32 38 41 48"/>
    </vehicle>
    <vehicle id="fl30_st0.0.45" depart="177.79" departLane="best" color="68,242,219">
        <route edges="30 26 19 12 9 8 1"/>
    </vehicle>
    <vehicle id="fl30_st0.0.46" depart="178.27" departLane="best" color="68,242,219">
        <route edges="30 26 19 12 9 8 1"/>
    </vehicle>
    <vehicle id="fl47_st0.0.14" depart="178.35" departLane="best" color="68,242,219">
        <route edges="47 45 40 39 33 23 13 22 28 27"/>
    </vehicle>
    <vehicle id="fl119_st0.0.7" depart="178.95" departLane="best" color="68,242,219">
        <route edges="119 117"/>
    </vehicle>
    <vehicle id="fl54_st0.0.2" depart="179.21" departLane="best" color="68,242,219">
        <route edges="54 111 55 58 62 69 74 80 82 90 91 92 103 108 110 116 122"/>
    </vehicle>
    <vehicle id="fl30_st0.0.47" depart="183.06" departLane="best" color="68,242,219">
        <route edges="30 26 19 12 9 8 1"/>
    </vehicle>